-------------------------------------------------------
          Amber 18 PMEMD                              2018
          -------------------------------------------------------

  [-O]verwriting output

File Assignments:

 Here is the input file:

constant P
 &cntrl
  imin=0, ntx=5, irest=1,
  ntb=2, ntc=2, ntf=2,
  ntp=1, pres0=1.01325, taup=5,
  nstlim=500000, dt=0.002, cut=10,
  ntt=3, temp0=300, gamma_ln=1,
  ntpr=1000, ntwx=10000, ntwr=10000, tempi=300,ioutfm=1,ig=-1,
  ntr=1, restraintmask=':1-275', restraint_wt=5.0,
 /
 &ewald
 /

Note: ig = -1. Setting random seed to    21665 based on wallclock time in
      microseconds.

--------------------------------------------------------------------------------
   1.  RESOURCE   USE:
--------------------------------------------------------------------------------

 getting box info from netcdf restart file
 NATOM  =   48335 NTYPES =      18 NBONH =   46216 MBONA  =    2144
 NTHETH =    4730 MTHETA =    2896 NPHIH =    9622 MPHIA  =    9100
 NHPARM =       0 NPARM  =       0 NNB   =   81893 NRES   =   14997
 NBONA  =    2144 NTHETA =    2896 NPHIA =    9100 NUMBND =      67
 NUMANG =     150 NPTRA  =     196 NATYP =      38 NPHB   =       1
 IFBOX  =       2 NMXRS  =      24 IFCAP =       0 NEXTRA =       0
 NCOPY  =       0

     BOX TYPE: TRUNCATED OCTAHEDRON

--------------------------------------------------------------------------------
   2.  CONTROL  DATA  FOR  THE  RUN
--------------------------------------------------------------------------------

default_name

General flags:
     imin    =       0, nmropt  =       0

Nature and format of input:
     ntx     =       5, irest   =       1, ntrx    =       1

Nature and format of output:
     ntxo    =       2, ntpr    =    1000, ntrx    =       1, ntwr    =   10000
     iwrap   =       0, ntwx    =   10000, ntwv    =       0, ntwe    =       0
     ioutfm  =       1, ntwprt  =       0, idecomp =       0, rbornstat=      0

Potential function:
     ntf     =       2, ntb     =       2, igb     =       0, nsnb    =      25
     ipol    =       0, gbsa    =       0, iesp    =       0
     dielc   =   1.00000, cut     =  10.00000, intdiel =   1.00000
     lj1264  =       1

Frozen or restrained atoms:
     ibelly  =       0, ntr     =       1
     restraint_wt =   5.00000

Molecular dynamics:
     nstlim  =    500000, nscm    =         0, nrespa  =         1
     t       =   0.00000, dt      =   0.00200, vlimit  =  -1.00000

Langevin dynamics temperature regulation:
     ig      =   21665
     temp0   = 300.00000, tempi   = 300.00000, gamma_ln=   1.00000

Pressure regulation:
     ntp     =       1
     pres0   =   1.01325, comp    =  44.60000, taup    =   5.00000

SHAKE:
     ntc     =       2, jfastw  =       0
     tol     =   0.00001

Ewald parameters:
     verbose =       0, ew_type =       0, nbflag  =       1, use_pme =       1
     vdwmeth =       1, eedmeth =       1, netfrc  =       1
     Box X =   88.843   Box Y =   88.843   Box Z =   88.843
     Alpha =  109.471   Beta  =  109.471   Gamma =  109.471
     NFFT1 =   96       NFFT2 =   96       NFFT3 =   96
     Cutoff=   10.000   Tol   =0.100E-04
     Ewald Coefficient =  0.27511
     Interpolation order =    4

    LOADING THE CONSTRAINED ATOMS AS GROUPS

   5.  REFERENCE ATOM COORDINATES

  default_name
     Mask :1-275; matches  4189 atoms

--------------------------------------------------------------------------------
   3.  ATOMIC COORDINATES AND VELOCITIES
--------------------------------------------------------------------------------

default_name
 begin time read from input coords =  1000.000 ps

 Number of triangulated 3-point waters found:    14712

     Sum of charges from parm topology file =  -0.00000010
     Forcing neutrality...

--------------------------------------------------------------------------------
   4.  RESULTS
 NSTEP =     1000   TIME(PS) =    1002.000  TEMP(K) =   299.76  PRESS =  -411.8
 Etot   =   -118161.4488  EKtot   =     29423.1699  EPtot      =   -147584.6187
 BOND   =       779.7993  ANGLE   =      1993.0017  DIHED      =      3226.7749
 1-4 NB =       929.9572  1-4 EEL =     11202.9790  VDWAALS    =     18201.4902
 EELEC  =   -184649.4560  EHBOND  =         0.0000  RESTRAINT  =       730.8349
 EAMBER (non-restraint)  =   -148315.4536
 EKCMT  =     13196.8302  VIRIAL  =     17957.7870  VOLUME     =    535478.7600
                                                    Density    =         0.9157
 ------------------------------------------------------------------------------

      A V E R A G E S   O V E R     500 S T E P S

 NSTEP =   500000   TIME(PS) =    2000.000  TEMP(K) =   300.05  PRESS =   -12.1
 Etot   =   -119386.9847  EKtot   =     29451.5007  EPtot      =   -148838.4855
 BOND   =       775.2637  ANGLE   =      1975.7804  DIHED      =      3267.2949
 1-4 NB =       941.1766  1-4 EEL =     11207.1001  VDWAALS    =     18167.8145
 EELEC  =   -185951.1479  EHBOND  =         0.0000  RESTRAINT  =       778.2322
 EAMBER (non-restraint)  =   -149616.7177
 EKCMT  =     13214.7200  VIRIAL  =     13347.7012  VOLUME     =    492318.2166
                                                    Density    =         0.9961
 ------------------------------------------------------------------------------

      R M S  F L U C T U A T I O N S

 NSTEP =   500000   TIME(PS) =    2000.000  TEMP(K) =     1.38  PRESS =   123.6
 Etot   =       271.1134  EKtot   =       135.1704  EPtot      =       219.2858
 BOND   =        22.3702  ANGLE   =        32.0907  DIHED      =        14.9338
 1-4 NB =        10.8336  1-4 EEL =        28.1668  VDWAALS    =       177.8727
 EELEC  =       305.7268  EHBOND  =         0.0000  RESTRAINT  =        16.9949
 EAMBER (non-restraint)  =       202.2908
 EKCMT  =        90.7225  VIRIAL  =      1323.2319  VOLUME     =      4930.1514
                                                    Density    =         0.0094
 ------------------------------------------------------------------------------
