-------------------------------------------------------
          Amber 18 PMEMD                              2018
          -------------------------------------------------------

  [-O]verwriting output

File Assignments:

 Here is the input file:

constant P
 &cntrl
  imin=0, ntx=5, irest=1,
  ntb=2, ntc=2, ntf=2,
  ntp=1, pres0=1.01325, taup=5,
  nstlim=500000, dt=0.002, cut=10,
  ntt=3, temp0=300, gamma_ln=1,
  ntpr=1000, ntwx=10000, ntwr=10000, tempi=300,ioutfm=1,ig=-1,
  ntr=1, restraintmask=':1-275', restraint_wt=4.0,
 /
 &ewald
 /

Note: ig = -1. Setting random seed to   734719 based on wallclock time in
      microseconds.

--------------------------------------------------------------------------------
   1.  RESOURCE   USE:
--------------------------------------------------------------------------------

 getting box info from netcdf restart file
 NATOM  =   48335 NTYPES =      18 NBONH =   46216 MBONA  =    2144
 NTHETH =    4730 MTHETA =    2896 NPHIH =    9622 MPHIA  =    9100
 NHPARM =       0 NPARM  =       0 NNB   =   81893 NRES   =   14997
 NBONA  =    2144 NTHETA =    2896 NPHIA =    9100 NUMBND =      67
 NUMANG =     150 NPTRA  =     196 NATYP =      38 NPHB   =       1
 IFBOX  =       2 NMXRS  =      24 IFCAP =       0 NEXTRA =       0
 NCOPY  =       0

     BOX TYPE: TRUNCATED OCTAHEDRON

--------------------------------------------------------------------------------
   2.  CONTROL  DATA  FOR  THE  RUN
--------------------------------------------------------------------------------

default_name

General flags:
     imin    =       0, nmropt  =       0

Nature and format of input:
     ntx     =       5, irest   =       1, ntrx    =       1

Nature and format of output:
     ntxo    =       2, ntpr    =    1000, ntrx    =       1, ntwr    =   10000
     iwrap   =       0, ntwx    =   10000, ntwv    =       0, ntwe    =       0
     ioutfm  =       1, ntwprt  =       0, idecomp =       0, rbornstat=      0

Potential function:
     ntf     =       2, ntb     =       2, igb     =       0, nsnb    =      25
     ipol    =       0, gbsa    =       0, iesp    =       0
     dielc   =   1.00000, cut     =  10.00000, intdiel =   1.00000
     lj1264  =       1

Frozen or restrained atoms:
     ibelly  =       0, ntr     =       1
     restraint_wt =   4.00000

Molecular dynamics:
     nstlim  =    500000, nscm    =         0, nrespa  =         1
     t       =   0.00000, dt      =   0.00200, vlimit  =  -1.00000

Langevin dynamics temperature regulation:
     ig      =  734719
     temp0   = 300.00000, tempi   = 300.00000, gamma_ln=   1.00000

Pressure regulation:
     ntp     =       1
     pres0   =   1.01325, comp    =  44.60000, taup    =   5.00000

SHAKE:
     ntc     =       2, jfastw  =       0
     tol     =   0.00001

Ewald parameters:
     verbose =       0, ew_type =       0, nbflag  =       1, use_pme =       1
     vdwmeth =       1, eedmeth =       1, netfrc  =       1
     Box X =   86.095   Box Y =   86.095   Box Z =   86.095
     Alpha =  109.471   Beta  =  109.471   Gamma =  109.471
     NFFT1 =   96       NFFT2 =   96       NFFT3 =   96
     Cutoff=   10.000   Tol   =0.100E-04
     Ewald Coefficient =  0.27511
     Interpolation order =    4

    LOADING THE CONSTRAINED ATOMS AS GROUPS

   5.  REFERENCE ATOM COORDINATES

  default_name
     Mask :1-275; matches  4189 atoms

--------------------------------------------------------------------------------
   3.  ATOMIC COORDINATES AND VELOCITIES
--------------------------------------------------------------------------------

default_name
 begin time read from input coords =  2000.000 ps

 Number of triangulated 3-point waters found:    14712

     Sum of charges from parm topology file =  -0.00000010
     Forcing neutrality...

--------------------------------------------------------------------------------
   4.  RESULTS
 NSTEP =     1000   TIME(PS) =    2002.000  TEMP(K) =   300.15  PRESS =  -174.8
 Etot   =   -119866.6941  EKtot   =     29461.6504  EPtot      =   -149328.3445
 BOND   =       776.8539  ANGLE   =      1977.0876  DIHED      =      3275.0426
 1-4 NB =       938.1546  1-4 EEL =     11209.4978  VDWAALS    =     17996.9761
 EELEC  =   -186157.3484  EHBOND  =         0.0000  RESTRAINT  =       655.3913
 EAMBER (non-restraint)  =   -149983.7359
 EKCMT  =     13178.7711  VIRIAL  =     15028.9710  VOLUME     =    490161.1835
                                                    Density    =         1.0003
 ------------------------------------------------------------------------------

      A V E R A G E S   O V E R     500 S T E P S

 NSTEP =   500000   TIME(PS) =    3000.000  TEMP(K) =   299.96  PRESS =     3.4
 Etot   =   -119735.6762  EKtot   =     29442.9390  EPtot      =   -149178.6153
 BOND   =       776.9164  ANGLE   =      1988.7040  DIHED      =      3281.3204
 1-4 NB =       947.1536  1-4 EEL =     11212.2338  VDWAALS    =     18246.6524
 EELEC  =   -186316.0032  EHBOND  =         0.0000  RESTRAINT  =       684.4073
 EAMBER (non-restraint)  =   -149863.0226
 EKCMT  =     13213.8029  VIRIAL  =     13177.8790  VOLUME     =    488058.8673
                                                    Density    =         1.0047
 ------------------------------------------------------------------------------

      R M S  F L U C T U A T I O N S

 NSTEP =   500000   TIME(PS) =    3000.000  TEMP(K) =     1.31  PRESS =   120.8
 Etot   =       224.3347  EKtot   =       128.6704  EPtot      =       187.7796
 BOND   =        23.4689  ANGLE   =        34.0678  DIHED      =        14.6147
 1-4 NB =        11.1488  1-4 EEL =        26.9627  VDWAALS    =       170.7732
 EELEC  =       281.5617  EHBOND  =         0.0000  RESTRAINT  =        15.1244
 EAMBER (non-restraint)  =       172.6552
 EKCMT  =        87.9013  VIRIAL  =      1269.0258  VOLUME     =       328.4540
                                                    Density    =         0.0007
 ------------------------------------------------------------------------------
