-------------------------------------------------------
          Amber 18 PMEMD                              2018
          -------------------------------------------------------

  [-O]verwriting output

File Assignments:

 Here is the input file:

constant P
 &cntrl
  imin=0, ntx=5, irest=1,
  ntb=2, ntc=2, ntf=2,
  ntp=1, pres0=1.01325, taup=5,
  nstlim=500000, dt=0.002, cut=10,
  ntt=3, temp0=300, gamma_ln=1,
  ntpr=1000, ntwx=10000, ntwr=10000, tempi=300,ioutfm=1,ig=-1,
  ntr=1, restraintmask=':1-275', restraint_wt=3.0,
 /
 &ewald
 /

Note: ig = -1. Setting random seed to   338960 based on wallclock time in
      microseconds.

--------------------------------------------------------------------------------
   1.  RESOURCE   USE:
--------------------------------------------------------------------------------

 getting box info from netcdf restart file
 NATOM  =   48335 NTYPES =      18 NBONH =   46216 MBONA  =    2144
 NTHETH =    4730 MTHETA =    2896 NPHIH =    9622 MPHIA  =    9100
 NHPARM =       0 NPARM  =       0 NNB   =   81893 NRES   =   14997
 NBONA  =    2144 NTHETA =    2896 NPHIA =    9100 NUMBND =      67
 NUMANG =     150 NPTRA  =     196 NATYP =      38 NPHB   =       1
 IFBOX  =       2 NMXRS  =      24 IFCAP =       0 NEXTRA =       0
 NCOPY  =       0

     BOX TYPE: TRUNCATED OCTAHEDRON

--------------------------------------------------------------------------------
   2.  CONTROL  DATA  FOR  THE  RUN
--------------------------------------------------------------------------------

default_name

General flags:
     imin    =       0, nmropt  =       0

Nature and format of input:
     ntx     =       5, irest   =       1, ntrx    =       1

Nature and format of output:
     ntxo    =       2, ntpr    =    1000, ntrx    =       1, ntwr    =   10000
     iwrap   =       0, ntwx    =   10000, ntwv    =       0, ntwe    =       0
     ioutfm  =       1, ntwprt  =       0, idecomp =       0, rbornstat=      0

Potential function:
     ntf     =       2, ntb     =       2, igb     =       0, nsnb    =      25
     ipol    =       0, gbsa    =       0, iesp    =       0
     dielc   =   1.00000, cut     =  10.00000, intdiel =   1.00000
     lj1264  =       1

Frozen or restrained atoms:
     ibelly  =       0, ntr     =       1
     restraint_wt =   3.00000

Molecular dynamics:
     nstlim  =    500000, nscm    =         0, nrespa  =         1
     t       =   0.00000, dt      =   0.00200, vlimit  =  -1.00000

Langevin dynamics temperature regulation:
     ig      =  338960
     temp0   = 300.00000, tempi   = 300.00000, gamma_ln=   1.00000

Pressure regulation:
     ntp     =       1
     pres0   =   1.01325, comp    =  44.60000, taup    =   5.00000

SHAKE:
     ntc     =       2, jfastw  =       0
     tol     =   0.00001

Ewald parameters:
     verbose =       0, ew_type =       0, nbflag  =       1, use_pme =       1
     vdwmeth =       1, eedmeth =       1, netfrc  =       1
     Box X =   85.876   Box Y =   85.876   Box Z =   85.876
     Alpha =  109.471   Beta  =  109.471   Gamma =  109.471
     NFFT1 =   96       NFFT2 =   96       NFFT3 =   96
     Cutoff=   10.000   Tol   =0.100E-04
     Ewald Coefficient =  0.27511
     Interpolation order =    4

    LOADING THE CONSTRAINED ATOMS AS GROUPS

   5.  REFERENCE ATOM COORDINATES

  default_name
     Mask :1-275; matches  4189 atoms

--------------------------------------------------------------------------------
   3.  ATOMIC COORDINATES AND VELOCITIES
--------------------------------------------------------------------------------

default_name
 begin time read from input coords =  3000.000 ps

 Number of triangulated 3-point waters found:    14712

     Sum of charges from parm topology file =  -0.00000010
     Forcing neutrality...

--------------------------------------------------------------------------------
   4.  RESULTS
 NSTEP =     1000   TIME(PS) =    3002.000  TEMP(K) =   298.46  PRESS =    72.7
 Etot   =   -120129.8835  EKtot   =     29295.7383  EPtot      =   -149425.6218
 BOND   =       772.4314  ANGLE   =      1946.9794  DIHED      =      3282.2900
 1-4 NB =       972.1683  1-4 EEL =     11227.1322  VDWAALS    =     18423.6703
 EELEC  =   -186627.1210  EHBOND  =         0.0000  RESTRAINT  =       576.8274
 EAMBER (non-restraint)  =   -150002.4493
 EKCMT  =     13198.6643  VIRIAL  =     12434.7348  VOLUME     =    486866.5042
                                                    Density    =         1.0071
 ------------------------------------------------------------------------------

      A V E R A G E S   O V E R     500 S T E P S

 NSTEP =   500000   TIME(PS) =    4000.000  TEMP(K) =   300.06  PRESS =    -3.7
 Etot   =   -119841.0513  EKtot   =     29452.5501  EPtot      =   -149293.6015
 BOND   =       776.0168  ANGLE   =      2004.9041  DIHED      =      3290.5519
 1-4 NB =       951.1723  1-4 EEL =     11210.4927  VDWAALS    =     18264.9854
 EELEC  =   -186403.7659  EHBOND  =         0.0000  RESTRAINT  =       612.0413
 EAMBER (non-restraint)  =   -149905.6427
 EKCMT  =     13216.3484  VIRIAL  =     13255.1482  VOLUME     =    486850.1103
                                                    Density    =         1.0071
 ------------------------------------------------------------------------------

      R M S  F L U C T U A T I O N S

 NSTEP =   500000   TIME(PS) =    4000.000  TEMP(K) =     1.40  PRESS =   118.5
 Etot   =       229.6568  EKtot   =       137.3300  EPtot      =       177.1849
 BOND   =        22.6064  ANGLE   =        33.1104  DIHED      =        15.6971
 1-4 NB =        11.3181  1-4 EEL =        27.7622  VDWAALS    =       183.2710
 EELEC  =       275.7785  EHBOND  =         0.0000  RESTRAINT  =        14.4605
 EAMBER (non-restraint)  =       162.7244
 EKCMT  =        92.1737  VIRIAL  =      1248.6164  VOLUME     =       318.2605
                                                    Density    =         0.0007
 ------------------------------------------------------------------------------
