-------------------------------------------------------
          Amber 18 PMEMD                              2018
          -------------------------------------------------------

  [-O]verwriting output

File Assignments:

 Here is the input file:

constant P
 &cntrl
  imin=0, ntx=5, irest=1,
  ntb=2, ntc=2, ntf=2,
  ntp=1, pres0=1.01325, taup=5,
  nstlim=500000, dt=0.002, cut=10,
  ntt=3, temp0=300, gamma_ln=1,
  ntpr=1000, ntwx=10000, ntwr=10000, tempi=300,ioutfm=1,ig=-1,
  ntr=1, restraintmask=':1-275', restraint_wt=2.0,
 /
 &ewald
 /

Note: ig = -1. Setting random seed to   338318 based on wallclock time in
      microseconds.

--------------------------------------------------------------------------------
   1.  RESOURCE   USE:
--------------------------------------------------------------------------------

 getting box info from netcdf restart file
 NATOM  =   48335 NTYPES =      18 NBONH =   46216 MBONA  =    2144
 NTHETH =    4730 MTHETA =    2896 NPHIH =    9622 MPHIA  =    9100
 NHPARM =       0 NPARM  =       0 NNB   =   81893 NRES   =   14997
 NBONA  =    2144 NTHETA =    2896 NPHIA =    9100 NUMBND =      67
 NUMANG =     150 NPTRA  =     196 NATYP =      38 NPHB   =       1
 IFBOX  =       2 NMXRS  =      24 IFCAP =       0 NEXTRA =       0
 NCOPY  =       0

     BOX TYPE: TRUNCATED OCTAHEDRON

--------------------------------------------------------------------------------
   2.  CONTROL  DATA  FOR  THE  RUN
--------------------------------------------------------------------------------

default_name

General flags:
     imin    =       0, nmropt  =       0

Nature and format of input:
     ntx     =       5, irest   =       1, ntrx    =       1

Nature and format of output:
     ntxo    =       2, ntpr    =    1000, ntrx    =       1, ntwr    =   10000
     iwrap   =       0, ntwx    =   10000, ntwv    =       0, ntwe    =       0
     ioutfm  =       1, ntwprt  =       0, idecomp =       0, rbornstat=      0

Potential function:
     ntf     =       2, ntb     =       2, igb     =       0, nsnb    =      25
     ipol    =       0, gbsa    =       0, iesp    =       0
     dielc   =   1.00000, cut     =  10.00000, intdiel =   1.00000
     lj1264  =       1

Frozen or restrained atoms:
     ibelly  =       0, ntr     =       1
     restraint_wt =   2.00000

Molecular dynamics:
     nstlim  =    500000, nscm    =         0, nrespa  =         1
     t       =   0.00000, dt      =   0.00200, vlimit  =  -1.00000

Langevin dynamics temperature regulation:
     ig      =  338318
     temp0   = 300.00000, tempi   = 300.00000, gamma_ln=   1.00000

Pressure regulation:
     ntp     =       1
     pres0   =   1.01325, comp    =  44.60000, taup    =   5.00000

SHAKE:
     ntc     =       2, jfastw  =       0
     tol     =   0.00001

Ewald parameters:
     verbose =       0, ew_type =       0, nbflag  =       1, use_pme =       1
     vdwmeth =       1, eedmeth =       1, netfrc  =       1
     Box X =   85.809   Box Y =   85.809   Box Z =   85.809
     Alpha =  109.471   Beta  =  109.471   Gamma =  109.471
     NFFT1 =   96       NFFT2 =   96       NFFT3 =   96
     Cutoff=   10.000   Tol   =0.100E-04
     Ewald Coefficient =  0.27511
     Interpolation order =    4

    LOADING THE CONSTRAINED ATOMS AS GROUPS

   5.  REFERENCE ATOM COORDINATES

  default_name
     Mask :1-275; matches  4189 atoms

--------------------------------------------------------------------------------
   3.  ATOMIC COORDINATES AND VELOCITIES
--------------------------------------------------------------------------------

default_name
 begin time read from input coords =  4000.000 ps

 Number of triangulated 3-point waters found:    14712

     Sum of charges from parm topology file =  -0.00000010
     Forcing neutrality...

--------------------------------------------------------------------------------
   4.  RESULTS
 NSTEP =     1000   TIME(PS) =    4002.000  TEMP(K) =   299.18  PRESS =   -56.5
 Etot   =   -120071.7261  EKtot   =     29366.6133  EPtot      =   -149438.3393
 BOND   =       811.5065  ANGLE   =      1969.3420  DIHED      =      3296.6574
 1-4 NB =       950.9749  1-4 EEL =     11213.8983  VDWAALS    =     18199.4147
 EELEC  =   -186404.6879  EHBOND  =         0.0000  RESTRAINT  =       524.5549
 EAMBER (non-restraint)  =   -149962.8942
 EKCMT  =     13163.1267  VIRIAL  =     13755.9108  VOLUME     =    486339.6957
                                                    Density    =         1.0082
 ------------------------------------------------------------------------------

      A V E R A G E S   O V E R     500 S T E P S

 NSTEP =   500000   TIME(PS) =    5000.000  TEMP(K) =   300.13  PRESS =    -7.7
 Etot   =   -119982.7484  EKtot   =     29459.2244  EPtot      =   -149441.9727
 BOND   =       783.2155  ANGLE   =      2023.3720  DIHED      =      3294.4936
 1-4 NB =       948.9877  1-4 EEL =     11212.8279  VDWAALS    =     18283.0507
 EELEC  =   -186505.0380  EHBOND  =         0.0000  RESTRAINT  =       517.1179
 EAMBER (non-restraint)  =   -149959.0907
 EKCMT  =     13218.6587  VIRIAL  =     13299.7124  VOLUME     =    485843.1142
                                                    Density    =         1.0092
 ------------------------------------------------------------------------------

      R M S  F L U C T U A T I O N S

 NSTEP =   500000   TIME(PS) =    5000.000  TEMP(K) =     1.36  PRESS =   116.9
 Etot   =       236.4577  EKtot   =       133.6166  EPtot      =       187.6178
 BOND   =        22.1686  ANGLE   =        34.4228  DIHED      =        16.0610
 1-4 NB =        10.7191  1-4 EEL =        30.7796  VDWAALS    =       182.4847
 EELEC  =       285.2313  EHBOND  =         0.0000  RESTRAINT  =        13.9224
 EAMBER (non-restraint)  =       173.6954
 EKCMT  =        91.3027  VIRIAL  =      1229.2178  VOLUME     =       291.9082
                                                    Density    =         0.0006
 ------------------------------------------------------------------------------
