-------------------------------------------------------
          Amber 18 PMEMD                              2018
          -------------------------------------------------------

  [-O]verwriting output

File Assignments:

 Here is the input file:

constant P
 &cntrl
  imin=0, ntx=5, irest=1,
  ntb=2, ntc=2, ntf=2,
  ntp=1, pres0=1.01325, taup=5,
  nstlim=500000, dt=0.002, cut=10,
  ntt=3, temp0=300, gamma_ln=1,
  ntpr=1000, ntwx=10000, ntwr=10000, tempi=300,ioutfm=1,ig=-1,
  ntr=1, restraintmask=':1-275', restraint_wt=1.0,
 /
 &ewald
 /

Note: ig = -1. Setting random seed to   540079 based on wallclock time in
      microseconds.

--------------------------------------------------------------------------------
   1.  RESOURCE   USE:
--------------------------------------------------------------------------------

 getting box info from netcdf restart file
 NATOM  =   48335 NTYPES =      18 NBONH =   46216 MBONA  =    2144
 NTHETH =    4730 MTHETA =    2896 NPHIH =    9622 MPHIA  =    9100
 NHPARM =       0 NPARM  =       0 NNB   =   81893 NRES   =   14997
 NBONA  =    2144 NTHETA =    2896 NPHIA =    9100 NUMBND =      67
 NUMANG =     150 NPTRA  =     196 NATYP =      38 NPHB   =       1
 IFBOX  =       2 NMXRS  =      24 IFCAP =       0 NEXTRA =       0
 NCOPY  =       0

     BOX TYPE: TRUNCATED OCTAHEDRON

--------------------------------------------------------------------------------
   2.  CONTROL  DATA  FOR  THE  RUN
--------------------------------------------------------------------------------

default_name

General flags:
     imin    =       0, nmropt  =       0

Nature and format of input:
     ntx     =       5, irest   =       1, ntrx    =       1

Nature and format of output:
     ntxo    =       2, ntpr    =    1000, ntrx    =       1, ntwr    =   10000
     iwrap   =       0, ntwx    =   10000, ntwv    =       0, ntwe    =       0
     ioutfm  =       1, ntwprt  =       0, idecomp =       0, rbornstat=      0

Potential function:
     ntf     =       2, ntb     =       2, igb     =       0, nsnb    =      25
     ipol    =       0, gbsa    =       0, iesp    =       0
     dielc   =   1.00000, cut     =  10.00000, intdiel =   1.00000
     lj1264  =       1

Frozen or restrained atoms:
     ibelly  =       0, ntr     =       1
     restraint_wt =   1.00000

Molecular dynamics:
     nstlim  =    500000, nscm    =         0, nrespa  =         1
     t       =   0.00000, dt      =   0.00200, vlimit  =  -1.00000

Langevin dynamics temperature regulation:
     ig      =  540079
     temp0   = 300.00000, tempi   = 300.00000, gamma_ln=   1.00000

Pressure regulation:
     ntp     =       1
     pres0   =   1.01325, comp    =  44.60000, taup    =   5.00000

SHAKE:
     ntc     =       2, jfastw  =       0
     tol     =   0.00001

Ewald parameters:
     verbose =       0, ew_type =       0, nbflag  =       1, use_pme =       1
     vdwmeth =       1, eedmeth =       1, netfrc  =       1
     Box X =   85.810   Box Y =   85.810   Box Z =   85.810
     Alpha =  109.471   Beta  =  109.471   Gamma =  109.471
     NFFT1 =   96       NFFT2 =   96       NFFT3 =   96
     Cutoff=   10.000   Tol   =0.100E-04
     Ewald Coefficient =  0.27511
     Interpolation order =    4

    LOADING THE CONSTRAINED ATOMS AS GROUPS

   5.  REFERENCE ATOM COORDINATES

  default_name
     Mask :1-275; matches  4189 atoms

--------------------------------------------------------------------------------
   3.  ATOMIC COORDINATES AND VELOCITIES
--------------------------------------------------------------------------------

default_name
 begin time read from input coords =  5000.000 ps

 Number of triangulated 3-point waters found:    14712

     Sum of charges from parm topology file =  -0.00000010
     Forcing neutrality...

--------------------------------------------------------------------------------
   4.  RESULTS
 NSTEP =     1000   TIME(PS) =    5002.000  TEMP(K) =   298.63  PRESS =  -152.7
 Etot   =   -120210.2057  EKtot   =     29312.2793  EPtot      =   -149522.4850
 BOND   =       799.7001  ANGLE   =      2038.3285  DIHED      =      3296.7841
 1-4 NB =       953.9896  1-4 EEL =     11121.7583  VDWAALS    =     18065.3591
 EELEC  =   -186174.2445  EHBOND  =         0.0000  RESTRAINT  =       375.8398
 EAMBER (non-restraint)  =   -149898.3248
 EKCMT  =     13220.1696  VIRIAL  =     14823.0943  VOLUME     =    486073.2866
                                                    Density    =         1.0088
 ------------------------------------------------------------------------------

      A V E R A G E S   O V E R     500 S T E P S

 NSTEP =   500000   TIME(PS) =    6000.000  TEMP(K) =   300.06  PRESS =    -1.7
 Etot   =   -120101.9613  EKtot   =     29452.8516  EPtot      =   -149554.8129
 BOND   =       790.4769  ANGLE   =      2054.8320  DIHED      =      3304.3373
 1-4 NB =       949.5866  1-4 EEL =     11196.2748  VDWAALS    =     18313.2138
 EELEC  =   -186549.0705  EHBOND  =         0.0000  RESTRAINT  =       385.5362
 EAMBER (non-restraint)  =   -149940.3491
 EKCMT  =     13217.3126  VIRIAL  =     13234.8123  VOLUME     =    485176.3497
                                                    Density    =         1.0106
 ------------------------------------------------------------------------------

      R M S  F L U C T U A T I O N S

 NSTEP =   500000   TIME(PS) =    6000.000  TEMP(K) =     1.28  PRESS =   117.2
 Etot   =       222.6214  EKtot   =       125.9004  EPtot      =       181.0485
 BOND   =        23.1562  ANGLE   =        34.0232  DIHED      =        15.8274
 1-4 NB =        11.2062  1-4 EEL =        31.5853  VDWAALS    =       186.1465
 EELEC  =       280.6079  EHBOND  =         0.0000  RESTRAINT  =        11.6394
 EAMBER (non-restraint)  =       169.4091
 EKCMT  =        86.4230  VIRIAL  =      1228.5210  VOLUME     =       342.5141
                                                    Density    =         0.0007
 ------------------------------------------------------------------------------
