-------------------------------------------------------
          Amber 18 PMEMD                              2018
          -------------------------------------------------------

  [-O]verwriting output

File Assignments:

 Here is the input file:

constant P
 &cntrl
  imin=0, ntx=5, irest=1,
  ntb=2, ntc=2, ntf=2,
  ntp=1, pres0=1.01325, taup=5,
  nstlim=500000, dt=0.002, cut=10,
  ntt=3, temp0=300, gamma_ln=1,
  ntpr=1000, ntwx=10000, ntwr=10000, tempi=300,ioutfm=1,ig=-1,
 /
 &ewald
 /

Note: ig = -1. Setting random seed to   231322 based on wallclock time in
      microseconds.

--------------------------------------------------------------------------------
   1.  RESOURCE   USE:
--------------------------------------------------------------------------------

 getting box info from netcdf restart file
 NATOM  =   48335 NTYPES =      18 NBONH =   46216 MBONA  =    2144
 NTHETH =    4730 MTHETA =    2896 NPHIH =    9622 MPHIA  =    9100
 NHPARM =       0 NPARM  =       0 NNB   =   81893 NRES   =   14997
 NBONA  =    2144 NTHETA =    2896 NPHIA =    9100 NUMBND =      67
 NUMANG =     150 NPTRA  =     196 NATYP =      38 NPHB   =       1
 IFBOX  =       2 NMXRS  =      24 IFCAP =       0 NEXTRA =       0
 NCOPY  =       0

     BOX TYPE: TRUNCATED OCTAHEDRON

--------------------------------------------------------------------------------
   2.  CONTROL  DATA  FOR  THE  RUN
--------------------------------------------------------------------------------

default_name

General flags:
     imin    =       0, nmropt  =       0

Nature and format of input:
     ntx     =       5, irest   =       1, ntrx    =       1

Nature and format of output:
     ntxo    =       2, ntpr    =    1000, ntrx    =       1, ntwr    =   10000
     iwrap   =       0, ntwx    =   10000, ntwv    =       0, ntwe    =       0
     ioutfm  =       1, ntwprt  =       0, idecomp =       0, rbornstat=      0

Potential function:
     ntf     =       2, ntb     =       2, igb     =       0, nsnb    =      25
     ipol    =       0, gbsa    =       0, iesp    =       0
     dielc   =   1.00000, cut     =  10.00000, intdiel =   1.00000
     lj1264  =       1

Frozen or restrained atoms:
     ibelly  =       0, ntr     =       0

Molecular dynamics:
     nstlim  =    500000, nscm    =      1000, nrespa  =         1
     t       =   0.00000, dt      =   0.00200, vlimit  =  -1.00000

Langevin dynamics temperature regulation:
     ig      =  231322
     temp0   = 300.00000, tempi   = 300.00000, gamma_ln=   1.00000

Pressure regulation:
     ntp     =       1
     pres0   =   1.01325, comp    =  44.60000, taup    =   5.00000

SHAKE:
     ntc     =       2, jfastw  =       0
     tol     =   0.00001

Ewald parameters:
     verbose =       0, ew_type =       0, nbflag  =       1, use_pme =       1
     vdwmeth =       1, eedmeth =       1, netfrc  =       1
     Box X =   85.750   Box Y =   85.750   Box Z =   85.750
     Alpha =  109.471   Beta  =  109.471   Gamma =  109.471
     NFFT1 =   96       NFFT2 =   96       NFFT3 =   96
     Cutoff=   10.000   Tol   =0.100E-04
     Ewald Coefficient =  0.27511
     Interpolation order =    4

--------------------------------------------------------------------------------
   3.  ATOMIC COORDINATES AND VELOCITIES
--------------------------------------------------------------------------------

default_name
 begin time read from input coords =  6000.000 ps

 Number of triangulated 3-point waters found:    14712

     Sum of charges from parm topology file =  -0.00000010
     Forcing neutrality...

--------------------------------------------------------------------------------
   4.  RESULTS
 NSTEP =     1000   TIME(PS) =    6002.000  TEMP(K) =   299.70  PRESS =    84.0
 Etot   =   -120379.3278  EKtot   =     29417.7656  EPtot      =   -149797.0934
 BOND   =       818.2456  ANGLE   =      2134.0745  DIHED      =      3329.9613
 1-4 NB =       944.4572  1-4 EEL =     11155.2303  VDWAALS    =     18321.6879
 EELEC  =   -186500.7502  EHBOND  =         0.0000  RESTRAINT  =         0.0000
 EKCMT  =     13181.5336  VIRIAL  =     12301.2691  VOLUME     =    485223.1474
                                                    Density    =         1.0105
 ------------------------------------------------------------------------------

      A V E R A G E S   O V E R     500 S T E P S

 NSTEP =   500000   TIME(PS) =    7000.000  TEMP(K) =   299.92  PRESS =     4.0
 Etot   =   -120497.7483  EKtot   =     29439.4644  EPtot      =   -149937.2127
 BOND   =       805.3243  ANGLE   =      2088.0424  DIHED      =      3319.1140
 1-4 NB =       951.0616  1-4 EEL =     11181.1941  VDWAALS    =     18412.5687
 EELEC  =   -186694.5178  EHBOND  =         0.0000  RESTRAINT  =         0.0000
 EKCMT  =     13213.2329  VIRIAL  =     13171.0862  VOLUME     =    484238.3221
                                                    Density    =         1.0126
 ------------------------------------------------------------------------------

      R M S  F L U C T U A T I O N S

 NSTEP =   500000   TIME(PS) =    7000.000  TEMP(K) =     1.38  PRESS =   116.6
 Etot   =       222.7457  EKtot   =       135.0314  EPtot      =       174.5976
 BOND   =        23.7301  ANGLE   =        34.6611  DIHED      =        20.6567
 1-4 NB =        12.8852  1-4 EEL =        36.9948  VDWAALS    =       184.8546
 EELEC  =       292.8413  EHBOND  =         0.0000  RESTRAINT  =         0.0000
 EKCMT  =        91.8377  VIRIAL  =      1221.2317  VOLUME     =       285.5357
                                                    Density    =         0.0006
 ------------------------------------------------------------------------------
