-------------------------------------------------------
          Amber 18 PMEMD                              2018
          -------------------------------------------------------

  [-O]verwriting output

File Assignments:

 Here is the input file:

NVT HeatUp 1ns
 &cntrl
  imin=0, irest=0, ntx=1, ig=-1,
  nstlim=500000, dt=0.002,
  ntb=1, cut=10,
  ntc=2, ntf=2,
  tempi=0.0, temp0=300.0, ntt=3, gamma_ln=2.0,
  ntpr=1000, ntwx=10000, ntwr=10000,
  ioutfm=1, ntwv=0, iwrap=1,
  ntr=1, restraintmask=':1-275', restraint_wt=5.0,
 /
 &ewald
 /

Note: ig = -1. Setting random seed to   705600 based on wallclock time in
      microseconds.

--------------------------------------------------------------------------------
   1.  RESOURCE   USE:
--------------------------------------------------------------------------------

 getting box info from netcdf restart file
 NATOM  =   48335 NTYPES =      18 NBONH =   46216 MBONA  =    2144
 NTHETH =    4730 MTHETA =    2896 NPHIH =    9622 MPHIA  =    9100
 NHPARM =       0 NPARM  =       0 NNB   =   81893 NRES   =   14997
 NBONA  =    2144 NTHETA =    2896 NPHIA =    9100 NUMBND =      67
 NUMANG =     150 NPTRA  =     196 NATYP =      38 NPHB   =       1
 IFBOX  =       2 NMXRS  =      24 IFCAP =       0 NEXTRA =       0
 NCOPY  =       0

     BOX TYPE: TRUNCATED OCTAHEDRON

--------------------------------------------------------------------------------
   2.  CONTROL  DATA  FOR  THE  RUN
--------------------------------------------------------------------------------

default_name

General flags:
     imin    =       0, nmropt  =       0

Nature and format of input:
     ntx     =       1, irest   =       0, ntrx    =       1

Nature and format of output:
     ntxo    =       2, ntpr    =    1000, ntrx    =       1, ntwr    =   10000
     iwrap   =       1, ntwx    =   10000, ntwv    =       0, ntwe    =       0
     ioutfm  =       1, ntwprt  =       0, idecomp =       0, rbornstat=      0

Potential function:
     ntf     =       2, ntb     =       1, igb     =       0, nsnb    =      25
     ipol    =       0, gbsa    =       0, iesp    =       0
     dielc   =   1.00000, cut     =  10.00000, intdiel =   1.00000
     lj1264  =       1

Frozen or restrained atoms:
     ibelly  =       0, ntr     =       1
     restraint_wt =   5.00000

Molecular dynamics:
     nstlim  =    500000, nscm    =         0, nrespa  =         1
     t       =   0.00000, dt      =   0.00200, vlimit  =  -1.00000

Langevin dynamics temperature regulation:
     ig      =  705600
     temp0   = 300.00000, tempi   =   0.00000, gamma_ln=   2.00000

SHAKE:
     ntc     =       2, jfastw  =       0
     tol     =   0.00001

Ewald parameters:
     verbose =       0, ew_type =       0, nbflag  =       1, use_pme =       1
     vdwmeth =       1, eedmeth =       1, netfrc  =       1
     Box X =   88.843   Box Y =   88.843   Box Z =   88.843
     Alpha =  109.471   Beta  =  109.471   Gamma =  109.471
     NFFT1 =   96       NFFT2 =   96       NFFT3 =   96
     Cutoff=   10.000   Tol   =0.100E-04
     Ewald Coefficient =  0.27511
     Interpolation order =    4

    LOADING THE CONSTRAINED ATOMS AS GROUPS

   5.  REFERENCE ATOM COORDINATES

  default_name
     Mask :1-275; matches  4189 atoms

--------------------------------------------------------------------------------
   3.  ATOMIC COORDINATES AND VELOCITIES
--------------------------------------------------------------------------------

default_name
 begin time read from input coords =     0.000 ps

 Number of triangulated 3-point waters found:    14712

     Sum of charges from parm topology file =  -0.00000010
     Forcing neutrality...

--------------------------------------------------------------------------------
   4.  RESULTS
 NSTEP =        0   TIME(PS) =       0.000  TEMP(K) =     0.00  PRESS =     0.0
 Etot   =   -213904.0476  EKtot   =         0.0000  EPtot      =   -213904.0476
 BOND   =       137.0778  ANGLE   =       497.4889  DIHED      =      2954.1301
 1-4 NB =       826.7571  1-4 EEL =     11206.5590  VDWAALS    =     37016.7526
 EELEC  =   -266542.8131  EHBOND  =         0.0000  RESTRAINT  =         0.0000
 ------------------------------------------------------------------------------

      A V E R A G E S   O V E R     500 S T E P S

 NSTEP =   500000   TIME(PS) =    1000.000  TEMP(K) =   299.94  PRESS =     0.0
 Etot   =   -117631.2529  EKtot   =     29440.6545  EPtot      =   -147071.9073
 BOND   =       779.9026  ANGLE   =      1953.1854  DIHED      =      3251.8468
 1-4 NB =       925.8778  1-4 EEL =     11186.5330  VDWAALS    =     17596.1676
 EELEC  =   -183354.6268  EHBOND  =         0.0000  RESTRAINT  =       589.2062
 EAMBER (non-restraint)  =   -147661.1136
 ------------------------------------------------------------------------------

      R M S  F L U C T U A T I O N S

 NSTEP =   500000   TIME(PS) =    1000.000  TEMP(K) =     1.48  PRESS =     0.0
 Etot   =       941.6983  EKtot   =       144.9607  EPtot      =       925.9517
 BOND   =        22.8359  ANGLE   =        32.2823  DIHED      =        13.8598
 1-4 NB =         9.8684  1-4 EEL =        28.0417  VDWAALS    =       417.6432
 EELEC  =      1311.3568  EHBOND  =         0.0000  RESTRAINT  =        15.2977
 EAMBER (non-restraint)  =       910.6541
 ------------------------------------------------------------------------------
