-------------------------------------------------------
          Amber 18 PMEMD                              2018
          -------------------------------------------------------

  [-O]verwriting output

File Assignments:

 Here is the input file:

Sampling at constant P
 &cntrl
  imin=0, ntx=5, irest=1,
  ntb=2, ntc=2, ntf=2,  ioutfm=1,
  ntp=1, pres0=1.01325, taup=5,
  nstlim=3000000, dt=0.002, cut=10,
  ntt=3, tempi=300, temp0=300, gamma_ln=1,
  ntpr=10000, ntwx=10000, ntwr=10000,
 /
 &ewald
 /

Note: ig = -1. Setting random seed to   313686 based on wallclock time in
      microseconds.

--------------------------------------------------------------------------------
   1.  RESOURCE   USE:
--------------------------------------------------------------------------------

 getting box info from netcdf restart file
 NATOM  =   48335 NTYPES =      18 NBONH =   46216 MBONA  =    2144
 NTHETH =    4730 MTHETA =    2896 NPHIH =    9622 MPHIA  =    9100
 NHPARM =       0 NPARM  =       0 NNB   =   81893 NRES   =   14997
 NBONA  =    2144 NTHETA =    2896 NPHIA =    9100 NUMBND =      67
 NUMANG =     150 NPTRA  =     196 NATYP =      38 NPHB   =       1
 IFBOX  =       2 NMXRS  =      24 IFCAP =       0 NEXTRA =       0
 NCOPY  =       0

     BOX TYPE: TRUNCATED OCTAHEDRON

--------------------------------------------------------------------------------
   2.  CONTROL  DATA  FOR  THE  RUN
--------------------------------------------------------------------------------

default_name

General flags:
     imin    =       0, nmropt  =       0

Nature and format of input:
     ntx     =       5, irest   =       1, ntrx    =       1

Nature and format of output:
     ntxo    =       2, ntpr    =   10000, ntrx    =       1, ntwr    =   10000
     iwrap   =       0, ntwx    =   10000, ntwv    =       0, ntwe    =       0
     ioutfm  =       1, ntwprt  =       0, idecomp =       0, rbornstat=      0

Potential function:
     ntf     =       2, ntb     =       2, igb     =       0, nsnb    =      25
     ipol    =       0, gbsa    =       0, iesp    =       0
     dielc   =   1.00000, cut     =  10.00000, intdiel =   1.00000
     lj1264  =       1

Frozen or restrained atoms:
     ibelly  =       0, ntr     =       0

Molecular dynamics:
     nstlim  =   3000000, nscm    =      1000, nrespa  =         1
     t       =   0.00000, dt      =   0.00200, vlimit  =  -1.00000

Langevin dynamics temperature regulation:
     ig      =  313686
     temp0   = 300.00000, tempi   = 300.00000, gamma_ln=   1.00000

Pressure regulation:
     ntp     =       1
     pres0   =   1.01325, comp    =  44.60000, taup    =   5.00000

SHAKE:
     ntc     =       2, jfastw  =       0
     tol     =   0.00001

Ewald parameters:
     verbose =       0, ew_type =       0, nbflag  =       1, use_pme =       1
     vdwmeth =       1, eedmeth =       1, netfrc  =       1
     Box X =   85.718   Box Y =   85.718   Box Z =   85.718
     Alpha =  109.471   Beta  =  109.471   Gamma =  109.471
     NFFT1 =   96       NFFT2 =   96       NFFT3 =   96
     Cutoff=   10.000   Tol   =0.100E-04
     Ewald Coefficient =  0.27511
     Interpolation order =    4

--------------------------------------------------------------------------------
   3.  ATOMIC COORDINATES AND VELOCITIES
--------------------------------------------------------------------------------

default_name
 begin time read from input coords =  7000.000 ps

 Number of triangulated 3-point waters found:    14712

     Sum of charges from parm topology file =  -0.00000010
     Forcing neutrality...

--------------------------------------------------------------------------------
   4.  RESULTS
 NSTEP =    10000   TIME(PS) =    7020.000  TEMP(K) =   301.30  PRESS =   -47.2
 Etot   =   -120458.6017  EKtot   =     29574.4590  EPtot      =   -150033.0606
 BOND   =       834.8190  ANGLE   =      2068.2624  DIHED      =      3317.1280
 1-4 NB =       947.0884  1-4 EEL =     11139.3947  VDWAALS    =     18306.9968
 EELEC  =   -186646.7500  EHBOND  =         0.0000  RESTRAINT  =         0.0000
 EKCMT  =     13299.1394  VIRIAL  =     13792.3037  VOLUME     =    484301.1294
                                                    Density    =         1.0124
 ------------------------------------------------------------------------------

      A V E R A G E S   O V E R     300 S T E P S

 NSTEP =  3000000   TIME(PS) =   13000.000  TEMP(K) =   299.81  PRESS =     2.2
 Etot   =   -120547.3486  EKtot   =     29428.1611  EPtot      =   -149975.5097
 BOND   =       803.3228  ANGLE   =      2084.2253  DIHED      =      3306.4432
 1-4 NB =       951.7680  1-4 EEL =     11172.5382  VDWAALS    =     18410.2909
 EELEC  =   -186704.0981  EHBOND  =         0.0000  RESTRAINT  =         0.0000
 EKCMT  =     13207.3126  VIRIAL  =     13184.6756  VOLUME     =    484253.9165
                                                    Density    =         1.0125
 ------------------------------------------------------------------------------

      R M S  F L U C T U A T I O N S

 NSTEP =  3000000   TIME(PS) =   13000.000  TEMP(K) =     1.31  PRESS =   120.8
 Etot   =       234.2505  EKtot   =       128.8788  EPtot      =       188.4451
 BOND   =        25.3890  ANGLE   =        36.6322  DIHED      =        19.1483
 1-4 NB =        12.8521  1-4 EEL =        41.1087  VDWAALS    =       189.5578
 EELEC  =       294.6414  EHBOND  =         0.0000  RESTRAINT  =         0.0000
 EKCMT  =        89.7242  VIRIAL  =      1265.2104  VOLUME     =       343.2208
                                                    Density    =         0.0007
 ------------------------------------------------------------------------------
