-------------------------------------------------------
          Amber 18 PMEMD                              2018
          -------------------------------------------------------

  [-O]verwriting output

File Assignments:

 Here is the input file:

constant P
 &cntrl
  imin=0, ntx=5, irest=1,
  ntb=2, ntc=2, ntf=2,
  ntp=1, pres0=1.01325, taup=5,
  nstlim=500000, dt=0.002, cut=10,
  ntt=3, temp0=300, gamma_ln=1,
  ntpr=1000, ntwx=10000, ntwr=10000, tempi=300,ioutfm=1,ig=-1,
  ntr=1, restraintmask=':1-275', restraint_wt=5.0,
 /
 &ewald
 /

Note: ig = -1. Setting random seed to    48873 based on wallclock time in
      microseconds.

--------------------------------------------------------------------------------
   1.  RESOURCE   USE:
--------------------------------------------------------------------------------

 getting box info from netcdf restart file
 NATOM  =   48335 NTYPES =      18 NBONH =   46216 MBONA  =    2144
 NTHETH =    4730 MTHETA =    2896 NPHIH =    9622 MPHIA  =    9100
 NHPARM =       0 NPARM  =       0 NNB   =   81893 NRES   =   14997
 NBONA  =    2144 NTHETA =    2896 NPHIA =    9100 NUMBND =      67
 NUMANG =     150 NPTRA  =     196 NATYP =      38 NPHB   =       1
 IFBOX  =       2 NMXRS  =      24 IFCAP =       0 NEXTRA =       0
 NCOPY  =       0

     BOX TYPE: TRUNCATED OCTAHEDRON

--------------------------------------------------------------------------------
   2.  CONTROL  DATA  FOR  THE  RUN
--------------------------------------------------------------------------------

default_name

General flags:
     imin    =       0, nmropt  =       0

Nature and format of input:
     ntx     =       5, irest   =       1, ntrx    =       1

Nature and format of output:
     ntxo    =       2, ntpr    =    1000, ntrx    =       1, ntwr    =   10000
     iwrap   =       0, ntwx    =   10000, ntwv    =       0, ntwe    =       0
     ioutfm  =       1, ntwprt  =       0, idecomp =       0, rbornstat=      0

Potential function:
     ntf     =       2, ntb     =       2, igb     =       0, nsnb    =      25
     ipol    =       0, gbsa    =       0, iesp    =       0
     dielc   =   1.00000, cut     =  10.00000, intdiel =   1.00000
     lj1264  =       1

Frozen or restrained atoms:
     ibelly  =       0, ntr     =       1
     restraint_wt =   5.00000

Molecular dynamics:
     nstlim  =    500000, nscm    =         0, nrespa  =         1
     t       =   0.00000, dt      =   0.00200, vlimit  =  -1.00000

Langevin dynamics temperature regulation:
     ig      =   48873
     temp0   = 300.00000, tempi   = 300.00000, gamma_ln=   1.00000

Pressure regulation:
     ntp     =       1
     pres0   =   1.01325, comp    =  44.60000, taup    =   5.00000

SHAKE:
     ntc     =       2, jfastw  =       0
     tol     =   0.00001

Ewald parameters:
     verbose =       0, ew_type =       0, nbflag  =       1, use_pme =       1
     vdwmeth =       1, eedmeth =       1, netfrc  =       1
     Box X =   88.843   Box Y =   88.843   Box Z =   88.843
     Alpha =  109.471   Beta  =  109.471   Gamma =  109.471
     NFFT1 =   96       NFFT2 =   96       NFFT3 =   96
     Cutoff=   10.000   Tol   =0.100E-04
     Ewald Coefficient =  0.27511
     Interpolation order =    4

    LOADING THE CONSTRAINED ATOMS AS GROUPS

   5.  REFERENCE ATOM COORDINATES

  default_name
     Mask :1-275; matches  4189 atoms

--------------------------------------------------------------------------------
   3.  ATOMIC COORDINATES AND VELOCITIES
--------------------------------------------------------------------------------

default_name
 begin time read from input coords =  1000.000 ps

 Number of triangulated 3-point waters found:    14712

     Sum of charges from parm topology file =  -0.00000010
     Forcing neutrality...

--------------------------------------------------------------------------------
   4.  RESULTS
 NSTEP =     1000   TIME(PS) =    1002.000  TEMP(K) =   300.56  PRESS =  -511.6
 Etot   =   -118313.5333  EKtot   =     29502.2930  EPtot      =   -147815.8262
 BOND   =       766.7502  ANGLE   =      1944.9880  DIHED      =      3233.3201
 1-4 NB =       938.6642  1-4 EEL =     11239.2011  VDWAALS    =     17804.7154
 EELEC  =   -184490.0390  EHBOND  =         0.0000  RESTRAINT  =       746.5737
 EAMBER (non-restraint)  =   -148562.4000
 EKCMT  =     13156.9869  VIRIAL  =     19062.0334  VOLUME     =    534573.0813
                                                    Density    =         0.9172
 ------------------------------------------------------------------------------

      A V E R A G E S   O V E R     500 S T E P S

 NSTEP =   500000   TIME(PS) =    2000.000  TEMP(K) =   300.07  PRESS =   -14.8
 Etot   =   -119423.0192  EKtot   =     29453.4328  EPtot      =   -148876.4519
 BOND   =       774.2095  ANGLE   =      1977.3461  DIHED      =      3272.7266
 1-4 NB =       943.3646  1-4 EEL =     11202.4256  VDWAALS    =     18160.8816
 EELEC  =   -185976.9809  EHBOND  =         0.0000  RESTRAINT  =       769.5749
 EAMBER (non-restraint)  =   -149646.0268
 EKCMT  =     13217.0339  VIRIAL  =     13379.8047  VOLUME     =    491779.6123
                                                    Density    =         0.9971
 ------------------------------------------------------------------------------

      R M S  F L U C T U A T I O N S

 NSTEP =   500000   TIME(PS) =    2000.000  TEMP(K) =     1.41  PRESS =   126.4
 Etot   =       268.4181  EKtot   =       138.2161  EPtot      =       223.7486
 BOND   =        21.8126  ANGLE   =        32.5206  DIHED      =        14.7814
 1-4 NB =        10.9035  1-4 EEL =        27.2506  VDWAALS    =       182.0701
 EELEC  =       330.5793  EHBOND  =         0.0000  RESTRAINT  =        16.8618
 EAMBER (non-restraint)  =       206.8868
 EKCMT  =        93.1414  VIRIAL  =      1359.0394  VOLUME     =      4619.5722
                                                    Density    =         0.0088
 ------------------------------------------------------------------------------
