-------------------------------------------------------
          Amber 18 PMEMD                              2018
          -------------------------------------------------------

  [-O]verwriting output

File Assignments:

 Here is the input file:

constant P
 &cntrl
  imin=0, ntx=5, irest=1,
  ntb=2, ntc=2, ntf=2,
  ntp=1, pres0=1.01325, taup=5,
  nstlim=500000, dt=0.002, cut=10,
  ntt=3, temp0=300, gamma_ln=1,
  ntpr=1000, ntwx=10000, ntwr=10000, tempi=300,ioutfm=1,ig=-1,
  ntr=1, restraintmask=':1-275', restraint_wt=4.0,
 /
 &ewald
 /

Note: ig = -1. Setting random seed to   472435 based on wallclock time in
      microseconds.

--------------------------------------------------------------------------------
   1.  RESOURCE   USE:
--------------------------------------------------------------------------------

 getting box info from netcdf restart file
 NATOM  =   48335 NTYPES =      18 NBONH =   46216 MBONA  =    2144
 NTHETH =    4730 MTHETA =    2896 NPHIH =    9622 MPHIA  =    9100
 NHPARM =       0 NPARM  =       0 NNB   =   81893 NRES   =   14997
 NBONA  =    2144 NTHETA =    2896 NPHIA =    9100 NUMBND =      67
 NUMANG =     150 NPTRA  =     196 NATYP =      38 NPHB   =       1
 IFBOX  =       2 NMXRS  =      24 IFCAP =       0 NEXTRA =       0
 NCOPY  =       0

     BOX TYPE: TRUNCATED OCTAHEDRON

--------------------------------------------------------------------------------
   2.  CONTROL  DATA  FOR  THE  RUN
--------------------------------------------------------------------------------

default_name

General flags:
     imin    =       0, nmropt  =       0

Nature and format of input:
     ntx     =       5, irest   =       1, ntrx    =       1

Nature and format of output:
     ntxo    =       2, ntpr    =    1000, ntrx    =       1, ntwr    =   10000
     iwrap   =       0, ntwx    =   10000, ntwv    =       0, ntwe    =       0
     ioutfm  =       1, ntwprt  =       0, idecomp =       0, rbornstat=      0

Potential function:
     ntf     =       2, ntb     =       2, igb     =       0, nsnb    =      25
     ipol    =       0, gbsa    =       0, iesp    =       0
     dielc   =   1.00000, cut     =  10.00000, intdiel =   1.00000
     lj1264  =       1

Frozen or restrained atoms:
     ibelly  =       0, ntr     =       1
     restraint_wt =   4.00000

Molecular dynamics:
     nstlim  =    500000, nscm    =         0, nrespa  =         1
     t       =   0.00000, dt      =   0.00200, vlimit  =  -1.00000

Langevin dynamics temperature regulation:
     ig      =  472435
     temp0   = 300.00000, tempi   = 300.00000, gamma_ln=   1.00000

Pressure regulation:
     ntp     =       1
     pres0   =   1.01325, comp    =  44.60000, taup    =   5.00000

SHAKE:
     ntc     =       2, jfastw  =       0
     tol     =   0.00001

Ewald parameters:
     verbose =       0, ew_type =       0, nbflag  =       1, use_pme =       1
     vdwmeth =       1, eedmeth =       1, netfrc  =       1
     Box X =   86.086   Box Y =   86.086   Box Z =   86.086
     Alpha =  109.471   Beta  =  109.471   Gamma =  109.471
     NFFT1 =   96       NFFT2 =   96       NFFT3 =   96
     Cutoff=   10.000   Tol   =0.100E-04
     Ewald Coefficient =  0.27511
     Interpolation order =    4

    LOADING THE CONSTRAINED ATOMS AS GROUPS

   5.  REFERENCE ATOM COORDINATES

  default_name
     Mask :1-275; matches  4189 atoms

--------------------------------------------------------------------------------
   3.  ATOMIC COORDINATES AND VELOCITIES
--------------------------------------------------------------------------------

default_name
 begin time read from input coords =  2000.000 ps

 Number of triangulated 3-point waters found:    14712

     Sum of charges from parm topology file =  -0.00000010
     Forcing neutrality...

--------------------------------------------------------------------------------
   4.  RESULTS
 NSTEP =     1000   TIME(PS) =    2002.000  TEMP(K) =   297.73  PRESS =    -5.7
 Etot   =   -119778.2525  EKtot   =     29224.2168  EPtot      =   -149002.4693
 BOND   =       780.7399  ANGLE   =      1990.8874  DIHED      =      3282.6621
 1-4 NB =       940.3004  1-4 EEL =     11160.3027  VDWAALS    =     18515.2516
 EELEC  =   -186321.0019  EHBOND  =         0.0000  RESTRAINT  =       648.3886
 EAMBER (non-restraint)  =   -149650.8579
 EKCMT  =     13087.9380  VIRIAL  =     13148.0201  VOLUME     =    490264.5087
                                                    Density    =         1.0001
 ------------------------------------------------------------------------------

      A V E R A G E S   O V E R     500 S T E P S

 NSTEP =   500000   TIME(PS) =    3000.000  TEMP(K) =   300.04  PRESS =    -8.1
 Etot   =   -119705.7406  EKtot   =     29451.1930  EPtot      =   -149156.9337
 BOND   =       779.9521  ANGLE   =      2002.2503  DIHED      =      3283.8850
 1-4 NB =       938.2164  1-4 EEL =     11188.1101  VDWAALS    =     18232.1899
 EELEC  =   -186274.3223  EHBOND  =         0.0000  RESTRAINT  =       692.7848
 EAMBER (non-restraint)  =   -149849.7185
 EKCMT  =     13219.4756  VIRIAL  =     13305.3086  VOLUME     =    488134.6100
                                                    Density    =         1.0045
 ------------------------------------------------------------------------------

      R M S  F L U C T U A T I O N S

 NSTEP =   500000   TIME(PS) =    3000.000  TEMP(K) =     1.32  PRESS =   119.4
 Etot   =       220.1250  EKtot   =       129.5715  EPtot      =       177.8279
 BOND   =        21.8613  ANGLE   =        33.4943  DIHED      =        15.3119
 1-4 NB =        11.1591  1-4 EEL =        29.2438  VDWAALS    =       184.7592
 EELEC  =       290.7253  EHBOND  =         0.0000  RESTRAINT  =        15.7320
 EAMBER (non-restraint)  =       162.0959
 EKCMT  =        84.9720  VIRIAL  =      1256.0553  VOLUME     =       354.3651
                                                    Density    =         0.0007
 ------------------------------------------------------------------------------
