-------------------------------------------------------
          Amber 18 PMEMD                              2018
          -------------------------------------------------------

  [-O]verwriting output

File Assignments:

 Here is the input file:

constant P
 &cntrl
  imin=0, ntx=5, irest=1,
  ntb=2, ntc=2, ntf=2,
  ntp=1, pres0=1.01325, taup=5,
  nstlim=500000, dt=0.002, cut=10,
  ntt=3, temp0=300, gamma_ln=1,
  ntpr=1000, ntwx=10000, ntwr=10000, tempi=300,ioutfm=1,ig=-1,
  ntr=1, restraintmask=':1-275', restraint_wt=3.0,
 /
 &ewald
 /

Note: ig = -1. Setting random seed to   740904 based on wallclock time in
      microseconds.

--------------------------------------------------------------------------------
   1.  RESOURCE   USE:
--------------------------------------------------------------------------------

 getting box info from netcdf restart file
 NATOM  =   48335 NTYPES =      18 NBONH =   46216 MBONA  =    2144
 NTHETH =    4730 MTHETA =    2896 NPHIH =    9622 MPHIA  =    9100
 NHPARM =       0 NPARM  =       0 NNB   =   81893 NRES   =   14997
 NBONA  =    2144 NTHETA =    2896 NPHIA =    9100 NUMBND =      67
 NUMANG =     150 NPTRA  =     196 NATYP =      38 NPHB   =       1
 IFBOX  =       2 NMXRS  =      24 IFCAP =       0 NEXTRA =       0
 NCOPY  =       0

     BOX TYPE: TRUNCATED OCTAHEDRON

--------------------------------------------------------------------------------
   2.  CONTROL  DATA  FOR  THE  RUN
--------------------------------------------------------------------------------

default_name

General flags:
     imin    =       0, nmropt  =       0

Nature and format of input:
     ntx     =       5, irest   =       1, ntrx    =       1

Nature and format of output:
     ntxo    =       2, ntpr    =    1000, ntrx    =       1, ntwr    =   10000
     iwrap   =       0, ntwx    =   10000, ntwv    =       0, ntwe    =       0
     ioutfm  =       1, ntwprt  =       0, idecomp =       0, rbornstat=      0

Potential function:
     ntf     =       2, ntb     =       2, igb     =       0, nsnb    =      25
     ipol    =       0, gbsa    =       0, iesp    =       0
     dielc   =   1.00000, cut     =  10.00000, intdiel =   1.00000
     lj1264  =       1

Frozen or restrained atoms:
     ibelly  =       0, ntr     =       1
     restraint_wt =   3.00000

Molecular dynamics:
     nstlim  =    500000, nscm    =         0, nrespa  =         1
     t       =   0.00000, dt      =   0.00200, vlimit  =  -1.00000

Langevin dynamics temperature regulation:
     ig      =  740904
     temp0   = 300.00000, tempi   = 300.00000, gamma_ln=   1.00000

Pressure regulation:
     ntp     =       1
     pres0   =   1.01325, comp    =  44.60000, taup    =   5.00000

SHAKE:
     ntc     =       2, jfastw  =       0
     tol     =   0.00001

Ewald parameters:
     verbose =       0, ew_type =       0, nbflag  =       1, use_pme =       1
     vdwmeth =       1, eedmeth =       1, netfrc  =       1
     Box X =   85.947   Box Y =   85.947   Box Z =   85.947
     Alpha =  109.471   Beta  =  109.471   Gamma =  109.471
     NFFT1 =   96       NFFT2 =   96       NFFT3 =   96
     Cutoff=   10.000   Tol   =0.100E-04
     Ewald Coefficient =  0.27511
     Interpolation order =    4

    LOADING THE CONSTRAINED ATOMS AS GROUPS

   5.  REFERENCE ATOM COORDINATES

  default_name
     Mask :1-275; matches  4189 atoms

--------------------------------------------------------------------------------
   3.  ATOMIC COORDINATES AND VELOCITIES
--------------------------------------------------------------------------------

default_name
 begin time read from input coords =  3000.000 ps

 Number of triangulated 3-point waters found:    14712

     Sum of charges from parm topology file =  -0.00000010
     Forcing neutrality...

--------------------------------------------------------------------------------
   4.  RESULTS
 NSTEP =     1000   TIME(PS) =    3002.000  TEMP(K) =   301.04  PRESS =   -75.2
 Etot   =   -119906.0635  EKtot   =     29549.4355  EPtot      =   -149455.4991
 BOND   =       757.0338  ANGLE   =      1950.6895  DIHED      =      3270.6697
 1-4 NB =       928.1423  1-4 EEL =     11206.7529  VDWAALS    =     18387.8862
 EELEC  =   -186552.5061  EHBOND  =         0.0000  RESTRAINT  =       595.8326
 EAMBER (non-restraint)  =   -150051.3317
 EKCMT  =     13333.6464  VIRIAL  =     14126.2758  VOLUME     =    488005.3047
                                                    Density    =         1.0048
 ------------------------------------------------------------------------------

      A V E R A G E S   O V E R     500 S T E P S

 NSTEP =   500000   TIME(PS) =    4000.000  TEMP(K) =   300.18  PRESS =    -1.2
 Etot   =   -119877.5785  EKtot   =     29464.8983  EPtot      =   -149342.4768
 BOND   =       783.8133  ANGLE   =      2010.6888  DIHED      =      3285.6446
 1-4 NB =       946.4579  1-4 EEL =     11203.2124  VDWAALS    =     18304.3714
 EELEC  =   -186484.8062  EHBOND  =         0.0000  RESTRAINT  =       608.1409
 EAMBER (non-restraint)  =   -149950.6177
 EKCMT  =     13222.0275  VIRIAL  =     13234.2680  VOLUME     =    486440.4798
                                                    Density    =         1.0080
 ------------------------------------------------------------------------------

      R M S  F L U C T U A T I O N S

 NSTEP =   500000   TIME(PS) =    4000.000  TEMP(K) =     1.27  PRESS =   120.3
 Etot   =       227.5638  EKtot   =       124.6216  EPtot      =       184.0305
 BOND   =        23.8079  ANGLE   =        33.2544  DIHED      =        15.7383
 1-4 NB =        10.8381  1-4 EEL =        29.0359  VDWAALS    =       177.5332
 EELEC  =       285.0469  EHBOND  =         0.0000  RESTRAINT  =        14.2273
 EAMBER (non-restraint)  =       169.8031
 EKCMT  =        89.4782  VIRIAL  =      1253.8453  VOLUME     =       304.4002
                                                    Density    =         0.0006
 ------------------------------------------------------------------------------
