-------------------------------------------------------
          Amber 18 PMEMD                              2018
          -------------------------------------------------------

  [-O]verwriting output

File Assignments:

 Here is the input file:

constant P
 &cntrl
  imin=0, ntx=5, irest=1,
  ntb=2, ntc=2, ntf=2,
  ntp=1, pres0=1.01325, taup=5,
  nstlim=500000, dt=0.002, cut=10,
  ntt=3, temp0=300, gamma_ln=1,
  ntpr=1000, ntwx=10000, ntwr=10000, tempi=300,ioutfm=1,ig=-1,
  ntr=1, restraintmask=':1-275', restraint_wt=2.0,
 /
 &ewald
 /

Note: ig = -1. Setting random seed to   779114 based on wallclock time in
      microseconds.

--------------------------------------------------------------------------------
   1.  RESOURCE   USE:
--------------------------------------------------------------------------------

 getting box info from netcdf restart file
 NATOM  =   48335 NTYPES =      18 NBONH =   46216 MBONA  =    2144
 NTHETH =    4730 MTHETA =    2896 NPHIH =    9622 MPHIA  =    9100
 NHPARM =       0 NPARM  =       0 NNB   =   81893 NRES   =   14997
 NBONA  =    2144 NTHETA =    2896 NPHIA =    9100 NUMBND =      67
 NUMANG =     150 NPTRA  =     196 NATYP =      38 NPHB   =       1
 IFBOX  =       2 NMXRS  =      24 IFCAP =       0 NEXTRA =       0
 NCOPY  =       0

     BOX TYPE: TRUNCATED OCTAHEDRON

--------------------------------------------------------------------------------
   2.  CONTROL  DATA  FOR  THE  RUN
--------------------------------------------------------------------------------

default_name

General flags:
     imin    =       0, nmropt  =       0

Nature and format of input:
     ntx     =       5, irest   =       1, ntrx    =       1

Nature and format of output:
     ntxo    =       2, ntpr    =    1000, ntrx    =       1, ntwr    =   10000
     iwrap   =       0, ntwx    =   10000, ntwv    =       0, ntwe    =       0
     ioutfm  =       1, ntwprt  =       0, idecomp =       0, rbornstat=      0

Potential function:
     ntf     =       2, ntb     =       2, igb     =       0, nsnb    =      25
     ipol    =       0, gbsa    =       0, iesp    =       0
     dielc   =   1.00000, cut     =  10.00000, intdiel =   1.00000
     lj1264  =       1

Frozen or restrained atoms:
     ibelly  =       0, ntr     =       1
     restraint_wt =   2.00000

Molecular dynamics:
     nstlim  =    500000, nscm    =         0, nrespa  =         1
     t       =   0.00000, dt      =   0.00200, vlimit  =  -1.00000

Langevin dynamics temperature regulation:
     ig      =  779114
     temp0   = 300.00000, tempi   = 300.00000, gamma_ln=   1.00000

Pressure regulation:
     ntp     =       1
     pres0   =   1.01325, comp    =  44.60000, taup    =   5.00000

SHAKE:
     ntc     =       2, jfastw  =       0
     tol     =   0.00001

Ewald parameters:
     verbose =       0, ew_type =       0, nbflag  =       1, use_pme =       1
     vdwmeth =       1, eedmeth =       1, netfrc  =       1
     Box X =   85.810   Box Y =   85.810   Box Z =   85.810
     Alpha =  109.471   Beta  =  109.471   Gamma =  109.471
     NFFT1 =   96       NFFT2 =   96       NFFT3 =   96
     Cutoff=   10.000   Tol   =0.100E-04
     Ewald Coefficient =  0.27511
     Interpolation order =    4

    LOADING THE CONSTRAINED ATOMS AS GROUPS

   5.  REFERENCE ATOM COORDINATES

  default_name
     Mask :1-275; matches  4189 atoms

--------------------------------------------------------------------------------
   3.  ATOMIC COORDINATES AND VELOCITIES
--------------------------------------------------------------------------------

default_name
 begin time read from input coords =  4000.000 ps

 Number of triangulated 3-point waters found:    14712

     Sum of charges from parm topology file =  -0.00000010
     Forcing neutrality...

--------------------------------------------------------------------------------
   4.  RESULTS
 NSTEP =     1000   TIME(PS) =    4002.000  TEMP(K) =   299.25  PRESS =  -135.0
 Etot   =   -120142.1934  EKtot   =     29373.2363  EPtot      =   -149515.4297
 BOND   =       754.1836  ANGLE   =      2020.2665  DIHED      =      3261.3378
 1-4 NB =       963.3571  1-4 EEL =     11254.5351  VDWAALS    =     18144.6659
 EELEC  =   -186421.1031  EHBOND  =         0.0000  RESTRAINT  =       507.3274
 EAMBER (non-restraint)  =   -150022.7571
 EKCMT  =     13237.1632  VIRIAL  =     14654.1131  VOLUME     =    486164.7689
                                                    Density    =         1.0086
 ------------------------------------------------------------------------------

      A V E R A G E S   O V E R     500 S T E P S

 NSTEP =   500000   TIME(PS) =    5000.000  TEMP(K) =   300.00  PRESS =    -4.8
 Etot   =   -120032.3478  EKtot   =     29446.6594  EPtot      =   -149479.0072
 BOND   =       782.8173  ANGLE   =      2024.0122  DIHED      =      3287.5655
 1-4 NB =       952.0754  1-4 EEL =     11204.2702  VDWAALS    =     18310.9283
 EELEC  =   -186552.8763  EHBOND  =         0.0000  RESTRAINT  =       512.2003
 EAMBER (non-restraint)  =   -149991.2074
 EKCMT  =     13210.8360  VIRIAL  =     13260.7438  VOLUME     =    485621.7496
                                                    Density    =         1.0097
 ------------------------------------------------------------------------------

      R M S  F L U C T U A T I O N S

 NSTEP =   500000   TIME(PS) =    5000.000  TEMP(K) =     1.35  PRESS =   117.3
 Etot   =       224.2882  EKtot   =       132.1087  EPtot      =       176.9434
 BOND   =        23.4202  ANGLE   =        34.8490  DIHED      =        16.0204
 1-4 NB =        11.7432  1-4 EEL =        31.0238  VDWAALS    =       167.2267
 EELEC  =       258.9122  EHBOND  =         0.0000  RESTRAINT  =        13.3695
 EAMBER (non-restraint)  =       163.5739
 EKCMT  =        87.3236  VIRIAL  =      1235.1055  VOLUME     =       330.0093
                                                    Density    =         0.0007
 ------------------------------------------------------------------------------
