-------------------------------------------------------
          Amber 18 PMEMD                              2018
          -------------------------------------------------------

  [-O]verwriting output

File Assignments:

 Here is the input file:

constant P
 &cntrl
  imin=0, ntx=5, irest=1,
  ntb=2, ntc=2, ntf=2,
  ntp=1, pres0=1.01325, taup=5,
  nstlim=500000, dt=0.002, cut=10,
  ntt=3, temp0=300, gamma_ln=1,
  ntpr=1000, ntwx=10000, ntwr=10000, tempi=300,ioutfm=1,ig=-1,
  ntr=1, restraintmask=':1-275', restraint_wt=1.0,
 /
 &ewald
 /

Note: ig = -1. Setting random seed to   382216 based on wallclock time in
      microseconds.

--------------------------------------------------------------------------------
   1.  RESOURCE   USE:
--------------------------------------------------------------------------------

 getting box info from netcdf restart file
 NATOM  =   48335 NTYPES =      18 NBONH =   46216 MBONA  =    2144
 NTHETH =    4730 MTHETA =    2896 NPHIH =    9622 MPHIA  =    9100
 NHPARM =       0 NPARM  =       0 NNB   =   81893 NRES   =   14997
 NBONA  =    2144 NTHETA =    2896 NPHIA =    9100 NUMBND =      67
 NUMANG =     150 NPTRA  =     196 NATYP =      38 NPHB   =       1
 IFBOX  =       2 NMXRS  =      24 IFCAP =       0 NEXTRA =       0
 NCOPY  =       0

     BOX TYPE: TRUNCATED OCTAHEDRON

--------------------------------------------------------------------------------
   2.  CONTROL  DATA  FOR  THE  RUN
--------------------------------------------------------------------------------

default_name

General flags:
     imin    =       0, nmropt  =       0

Nature and format of input:
     ntx     =       5, irest   =       1, ntrx    =       1

Nature and format of output:
     ntxo    =       2, ntpr    =    1000, ntrx    =       1, ntwr    =   10000
     iwrap   =       0, ntwx    =   10000, ntwv    =       0, ntwe    =       0
     ioutfm  =       1, ntwprt  =       0, idecomp =       0, rbornstat=      0

Potential function:
     ntf     =       2, ntb     =       2, igb     =       0, nsnb    =      25
     ipol    =       0, gbsa    =       0, iesp    =       0
     dielc   =   1.00000, cut     =  10.00000, intdiel =   1.00000
     lj1264  =       1

Frozen or restrained atoms:
     ibelly  =       0, ntr     =       1
     restraint_wt =   1.00000

Molecular dynamics:
     nstlim  =    500000, nscm    =         0, nrespa  =         1
     t       =   0.00000, dt      =   0.00200, vlimit  =  -1.00000

Langevin dynamics temperature regulation:
     ig      =  382216
     temp0   = 300.00000, tempi   = 300.00000, gamma_ln=   1.00000

Pressure regulation:
     ntp     =       1
     pres0   =   1.01325, comp    =  44.60000, taup    =   5.00000

SHAKE:
     ntc     =       2, jfastw  =       0
     tol     =   0.00001

Ewald parameters:
     verbose =       0, ew_type =       0, nbflag  =       1, use_pme =       1
     vdwmeth =       1, eedmeth =       1, netfrc  =       1
     Box X =   85.709   Box Y =   85.709   Box Z =   85.709
     Alpha =  109.471   Beta  =  109.471   Gamma =  109.471
     NFFT1 =   96       NFFT2 =   96       NFFT3 =   96
     Cutoff=   10.000   Tol   =0.100E-04
     Ewald Coefficient =  0.27511
     Interpolation order =    4

    LOADING THE CONSTRAINED ATOMS AS GROUPS

   5.  REFERENCE ATOM COORDINATES

  default_name
     Mask :1-275; matches  4189 atoms

--------------------------------------------------------------------------------
   3.  ATOMIC COORDINATES AND VELOCITIES
--------------------------------------------------------------------------------

default_name
 begin time read from input coords =  5000.000 ps

 Number of triangulated 3-point waters found:    14712

     Sum of charges from parm topology file =  -0.00000010
     Forcing neutrality...

--------------------------------------------------------------------------------
   4.  RESULTS
 NSTEP =     1000   TIME(PS) =    5002.000  TEMP(K) =   300.55  PRESS =    67.2
 Etot   =   -120269.6269  EKtot   =     29500.5742  EPtot      =   -149770.2012
 BOND   =       762.7386  ANGLE   =      2046.3702  DIHED      =      3307.0453
 1-4 NB =       971.8780  1-4 EEL =     11220.2214  VDWAALS    =     18315.7452
 EELEC  =   -186761.7393  EHBOND  =         0.0000  RESTRAINT  =       367.5394
 EAMBER (non-restraint)  =   -150137.7406
 EKCMT  =     13218.7565  VIRIAL  =     12515.2322  VOLUME     =    484858.8136
                                                    Density    =         1.0113
 ------------------------------------------------------------------------------

      A V E R A G E S   O V E R     500 S T E P S

 NSTEP =   500000   TIME(PS) =    6000.000  TEMP(K) =   300.10  PRESS =     5.6
 Etot   =   -120120.0311  EKtot   =     29456.7670  EPtot      =   -149576.7981
 BOND   =       787.2353  ANGLE   =      2051.3985  DIHED      =      3301.2099
 1-4 NB =       951.7738  1-4 EEL =     11204.7840  VDWAALS    =     18342.3746
 EELEC  =   -186602.0256  EHBOND  =         0.0000  RESTRAINT  =       386.4515
 EAMBER (non-restraint)  =   -149963.2496
 EKCMT  =     13221.1858  VIRIAL  =     13162.3484  VOLUME     =    485017.6271
                                                    Density    =         1.0110
 ------------------------------------------------------------------------------

      R M S  F L U C T U A T I O N S

 NSTEP =   500000   TIME(PS) =    6000.000  TEMP(K) =     1.37  PRESS =   111.6
 Etot   =       231.9899  EKtot   =       134.9210  EPtot      =       184.5376
 BOND   =        23.7906  ANGLE   =        34.6130  DIHED      =        16.0664
 1-4 NB =        11.8696  1-4 EEL =        32.2015  VDWAALS    =       179.7390
 EELEC  =       286.1735  EHBOND  =         0.0000  RESTRAINT  =        11.2501
 EAMBER (non-restraint)  =       173.2875
 EKCMT  =        91.7035  VIRIAL  =      1167.5341  VOLUME     =       312.5857
                                                    Density    =         0.0007
 ------------------------------------------------------------------------------
