-------------------------------------------------------
          Amber 18 PMEMD                              2018
          -------------------------------------------------------

  [-O]verwriting output

File Assignments:

 Here is the input file:

constant P
 &cntrl
  imin=0, ntx=5, irest=1,
  ntb=2, ntc=2, ntf=2,
  ntp=1, pres0=1.01325, taup=5,
  nstlim=500000, dt=0.002, cut=10,
  ntt=3, temp0=300, gamma_ln=1,
  ntpr=1000, ntwx=10000, ntwr=10000, tempi=300,ioutfm=1,ig=-1,
  ntr=1, restraintmask=':1-275', restraint_wt=5.0,
 /
 &ewald
 /

Note: ig = -1. Setting random seed to   826542 based on wallclock time in
      microseconds.

--------------------------------------------------------------------------------
   1.  RESOURCE   USE:
--------------------------------------------------------------------------------

 getting box info from netcdf restart file
 NATOM  =   26702 NTYPES =      18 NBONH =   24583 MBONA  =    2144
 NTHETH =    4730 MTHETA =    2896 NPHIH =    9622 MPHIA  =    9100
 NHPARM =       0 NPARM  =       0 NNB   =   53049 NRES   =    7786
 NBONA  =    2144 NTHETA =    2896 NPHIA =    9100 NUMBND =      67
 NUMANG =     150 NPTRA  =     196 NATYP =      38 NPHB   =       1
 IFBOX  =       2 NMXRS  =      24 IFCAP =       0 NEXTRA =       0
 NCOPY  =       0

     BOX TYPE: TRUNCATED OCTAHEDRON

--------------------------------------------------------------------------------
   2.  CONTROL  DATA  FOR  THE  RUN
--------------------------------------------------------------------------------

default_name

General flags:
     imin    =       0, nmropt  =       0

Nature and format of input:
     ntx     =       5, irest   =       1, ntrx    =       1

Nature and format of output:
     ntxo    =       2, ntpr    =    1000, ntrx    =       1, ntwr    =   10000
     iwrap   =       0, ntwx    =   10000, ntwv    =       0, ntwe    =       0
     ioutfm  =       1, ntwprt  =       0, idecomp =       0, rbornstat=      0

Potential function:
     ntf     =       2, ntb     =       2, igb     =       0, nsnb    =      25
     ipol    =       0, gbsa    =       0, iesp    =       0
     dielc   =   1.00000, cut     =  10.00000, intdiel =   1.00000
     lj1264  =       1

Frozen or restrained atoms:
     ibelly  =       0, ntr     =       1
     restraint_wt =   5.00000

Molecular dynamics:
     nstlim  =    500000, nscm    =         0, nrespa  =         1
     t       =   0.00000, dt      =   0.00200, vlimit  =  -1.00000

Langevin dynamics temperature regulation:
     ig      =  826542
     temp0   = 300.00000, tempi   = 300.00000, gamma_ln=   1.00000

Pressure regulation:
     ntp     =       1
     pres0   =   1.01325, comp    =  44.60000, taup    =   5.00000

SHAKE:
     ntc     =       2, jfastw  =       0
     tol     =   0.00001

Ewald parameters:
     verbose =       0, ew_type =       0, nbflag  =       1, use_pme =       1
     vdwmeth =       1, eedmeth =       1, netfrc  =       1
     Box X =   73.786   Box Y =   73.786   Box Z =   73.786
     Alpha =  109.471   Beta  =  109.471   Gamma =  109.471
     NFFT1 =   80       NFFT2 =   80       NFFT3 =   80
     Cutoff=   10.000   Tol   =0.100E-04
     Ewald Coefficient =  0.27511
     Interpolation order =    4

    LOADING THE CONSTRAINED ATOMS AS GROUPS

   5.  REFERENCE ATOM COORDINATES

  default_name
     Mask :1-275; matches  4189 atoms

--------------------------------------------------------------------------------
   3.  ATOMIC COORDINATES AND VELOCITIES
--------------------------------------------------------------------------------

default_name
 begin time read from input coords =  1000.000 ps

 Number of triangulated 3-point waters found:     7501

     Sum of charges from parm topology file =  -0.00000010
     Forcing neutrality...

--------------------------------------------------------------------------------
   4.  RESULTS
 NSTEP =     1000   TIME(PS) =    1002.000  TEMP(K) =   296.68  PRESS =  -338.5
 Etot   =    -63137.0743  EKtot   =     16367.0781  EPtot      =    -79504.1524
 BOND   =       807.3398  ANGLE   =      1916.3779  DIHED      =      3266.8473
 1-4 NB =       915.6930  1-4 EEL =     11158.7184  VDWAALS    =      8113.2584
 EELEC  =   -106423.8740  EHBOND  =         0.0000  RESTRAINT  =       741.4867
 EAMBER (non-restraint)  =    -80245.6392
 EKCMT  =      6641.2652  VIRIAL  =      8882.8602  VOLUME     =    306731.0280
                                                    Density    =         0.8952
 ------------------------------------------------------------------------------

      A V E R A G E S   O V E R     500 S T E P S

 NSTEP =   500000   TIME(PS) =    2000.000  TEMP(K) =   300.00  PRESS =    -9.8
 Etot   =    -63202.8638  EKtot   =     16550.0291  EPtot      =    -79752.8929
 BOND   =       775.8795  ANGLE   =      1969.8094  DIHED      =      3288.2954
 1-4 NB =       945.8412  1-4 EEL =     11195.6830  VDWAALS    =      7801.7267
 EELEC  =   -106532.9100  EHBOND  =         0.0000  RESTRAINT  =       802.7818
 EAMBER (non-restraint)  =    -80555.6748
 EKCMT  =      6739.5548  VIRIAL  =      6802.1168  VOLUME     =    276037.6279
                                                    Density    =         0.9950
 ------------------------------------------------------------------------------

      R M S  F L U C T U A T I O N S

 NSTEP =   500000   TIME(PS) =    2000.000  TEMP(K) =     1.79  PRESS =   185.7
 Etot   =       163.7678  EKtot   =        98.6883  EPtot      =       132.1311
 BOND   =        22.9910  ANGLE   =        33.5752  DIHED      =        14.5271
 1-4 NB =        10.2211  1-4 EEL =        28.2411  VDWAALS    =       130.4611
 EELEC  =       198.0854  EHBOND  =         0.0000  RESTRAINT  =        19.3541
 EAMBER (non-restraint)  =       112.7770
 EKCMT  =        64.2237  VIRIAL  =      1110.3956  VOLUME     =      4119.0840
                                                    Density    =         0.0139
 ------------------------------------------------------------------------------
