-------------------------------------------------------
          Amber 18 PMEMD                              2018
          -------------------------------------------------------

  [-O]verwriting output

File Assignments:

 Here is the input file:

constant P
 &cntrl
  imin=0, ntx=5, irest=1,
  ntb=2, ntc=2, ntf=2,
  ntp=1, pres0=1.01325, taup=5,
  nstlim=500000, dt=0.002, cut=10,
  ntt=3, temp0=300, gamma_ln=1,
  ntpr=1000, ntwx=10000, ntwr=10000, tempi=300,ioutfm=1,ig=-1,
  ntr=1, restraintmask=':1-275', restraint_wt=4.0,
 /
 &ewald
 /

Note: ig = -1. Setting random seed to   856877 based on wallclock time in
      microseconds.

--------------------------------------------------------------------------------
   1.  RESOURCE   USE:
--------------------------------------------------------------------------------

 getting box info from netcdf restart file
 NATOM  =   26702 NTYPES =      18 NBONH =   24583 MBONA  =    2144
 NTHETH =    4730 MTHETA =    2896 NPHIH =    9622 MPHIA  =    9100
 NHPARM =       0 NPARM  =       0 NNB   =   53049 NRES   =    7786
 NBONA  =    2144 NTHETA =    2896 NPHIA =    9100 NUMBND =      67
 NUMANG =     150 NPTRA  =     196 NATYP =      38 NPHB   =       1
 IFBOX  =       2 NMXRS  =      24 IFCAP =       0 NEXTRA =       0
 NCOPY  =       0

     BOX TYPE: TRUNCATED OCTAHEDRON

--------------------------------------------------------------------------------
   2.  CONTROL  DATA  FOR  THE  RUN
--------------------------------------------------------------------------------

default_name

General flags:
     imin    =       0, nmropt  =       0

Nature and format of input:
     ntx     =       5, irest   =       1, ntrx    =       1

Nature and format of output:
     ntxo    =       2, ntpr    =    1000, ntrx    =       1, ntwr    =   10000
     iwrap   =       0, ntwx    =   10000, ntwv    =       0, ntwe    =       0
     ioutfm  =       1, ntwprt  =       0, idecomp =       0, rbornstat=      0

Potential function:
     ntf     =       2, ntb     =       2, igb     =       0, nsnb    =      25
     ipol    =       0, gbsa    =       0, iesp    =       0
     dielc   =   1.00000, cut     =  10.00000, intdiel =   1.00000
     lj1264  =       1

Frozen or restrained atoms:
     ibelly  =       0, ntr     =       1
     restraint_wt =   4.00000

Molecular dynamics:
     nstlim  =    500000, nscm    =         0, nrespa  =         1
     t       =   0.00000, dt      =   0.00200, vlimit  =  -1.00000

Langevin dynamics temperature regulation:
     ig      =  856877
     temp0   = 300.00000, tempi   = 300.00000, gamma_ln=   1.00000

Pressure regulation:
     ntp     =       1
     pres0   =   1.01325, comp    =  44.60000, taup    =   5.00000

SHAKE:
     ntc     =       2, jfastw  =       0
     tol     =   0.00001

Ewald parameters:
     verbose =       0, ew_type =       0, nbflag  =       1, use_pme =       1
     vdwmeth =       1, eedmeth =       1, netfrc  =       1
     Box X =   70.950   Box Y =   70.950   Box Z =   70.950
     Alpha =  109.471   Beta  =  109.471   Gamma =  109.471
     NFFT1 =   72       NFFT2 =   72       NFFT3 =   72
     Cutoff=   10.000   Tol   =0.100E-04
     Ewald Coefficient =  0.27511
     Interpolation order =    4

    LOADING THE CONSTRAINED ATOMS AS GROUPS

   5.  REFERENCE ATOM COORDINATES

  default_name
     Mask :1-275; matches  4189 atoms

--------------------------------------------------------------------------------
   3.  ATOMIC COORDINATES AND VELOCITIES
--------------------------------------------------------------------------------

default_name
 begin time read from input coords =  2000.000 ps

 Number of triangulated 3-point waters found:     7501

     Sum of charges from parm topology file =  -0.00000010
     Forcing neutrality...

--------------------------------------------------------------------------------
   4.  RESULTS
 NSTEP =     1000   TIME(PS) =    2002.000  TEMP(K) =   299.25  PRESS =  -516.0
 Etot   =    -63465.8026  EKtot   =     16508.5762  EPtot      =    -79974.3787
 BOND   =       790.8054  ANGLE   =      2000.0908  DIHED      =      3310.9076
 1-4 NB =       951.1735  1-4 EEL =     11195.5366  VDWAALS    =      7736.7989
 EELEC  =   -106657.5116  EHBOND  =         0.0000  RESTRAINT  =       697.8200
 EAMBER (non-restraint)  =    -80672.1988
 EKCMT  =      6706.4886  VIRIAL  =      9752.7785  VOLUME     =    273411.9906
                                                    Density    =         1.0043
 ------------------------------------------------------------------------------

      A V E R A G E S   O V E R     500 S T E P S

 NSTEP =   500000   TIME(PS) =    3000.000  TEMP(K) =   300.05  PRESS =     3.4
 Etot   =    -63633.7820  EKtot   =     16552.7668  EPtot      =    -80186.5488
 BOND   =       780.2364  ANGLE   =      1985.8649  DIHED      =      3295.2372
 1-4 NB =       950.1155  1-4 EEL =     11208.4522  VDWAALS    =      7895.2424
 EELEC  =   -107003.0814  EHBOND  =         0.0000  RESTRAINT  =       701.3840
 EAMBER (non-restraint)  =    -80887.9328
 EKCMT  =      6741.6133  VIRIAL  =      6721.6521  VOLUME     =    270683.2461
                                                    Density    =         1.0145
 ------------------------------------------------------------------------------

      R M S  F L U C T U A T I O N S

 NSTEP =   500000   TIME(PS) =    3000.000  TEMP(K) =     1.64  PRESS =   184.2
 Etot   =       159.7277  EKtot   =        90.3579  EPtot      =       137.5065
 BOND   =        23.0271  ANGLE   =        33.7631  DIHED      =        14.1857
 1-4 NB =        10.8854  1-4 EEL =        29.1286  VDWAALS    =       132.3908
 EELEC  =       209.2813  EHBOND  =         0.0000  RESTRAINT  =        15.5663
 EAMBER (non-restraint)  =       121.9402
 EKCMT  =        58.9481  VIRIAL  =      1075.3462  VOLUME     =       280.8834
                                                    Density    =         0.0011
 ------------------------------------------------------------------------------
