-------------------------------------------------------
          Amber 18 PMEMD                              2018
          -------------------------------------------------------

  [-O]verwriting output

File Assignments:

 Here is the input file:

constant P
 &cntrl
  imin=0, ntx=5, irest=1,
  ntb=2, ntc=2, ntf=2,
  ntp=1, pres0=1.01325, taup=5,
  nstlim=500000, dt=0.002, cut=10,
  ntt=3, temp0=300, gamma_ln=1,
  ntpr=1000, ntwx=10000, ntwr=10000, tempi=300,ioutfm=1,ig=-1,
  ntr=1, restraintmask=':1-275', restraint_wt=3.0,
 /
 &ewald
 /

Note: ig = -1. Setting random seed to   647988 based on wallclock time in
      microseconds.

--------------------------------------------------------------------------------
   1.  RESOURCE   USE:
--------------------------------------------------------------------------------

 getting box info from netcdf restart file
 NATOM  =   26702 NTYPES =      18 NBONH =   24583 MBONA  =    2144
 NTHETH =    4730 MTHETA =    2896 NPHIH =    9622 MPHIA  =    9100
 NHPARM =       0 NPARM  =       0 NNB   =   53049 NRES   =    7786
 NBONA  =    2144 NTHETA =    2896 NPHIA =    9100 NUMBND =      67
 NUMANG =     150 NPTRA  =     196 NATYP =      38 NPHB   =       1
 IFBOX  =       2 NMXRS  =      24 IFCAP =       0 NEXTRA =       0
 NCOPY  =       0

     BOX TYPE: TRUNCATED OCTAHEDRON

--------------------------------------------------------------------------------
   2.  CONTROL  DATA  FOR  THE  RUN
--------------------------------------------------------------------------------

default_name

General flags:
     imin    =       0, nmropt  =       0

Nature and format of input:
     ntx     =       5, irest   =       1, ntrx    =       1

Nature and format of output:
     ntxo    =       2, ntpr    =    1000, ntrx    =       1, ntwr    =   10000
     iwrap   =       0, ntwx    =   10000, ntwv    =       0, ntwe    =       0
     ioutfm  =       1, ntwprt  =       0, idecomp =       0, rbornstat=      0

Potential function:
     ntf     =       2, ntb     =       2, igb     =       0, nsnb    =      25
     ipol    =       0, gbsa    =       0, iesp    =       0
     dielc   =   1.00000, cut     =  10.00000, intdiel =   1.00000
     lj1264  =       1

Frozen or restrained atoms:
     ibelly  =       0, ntr     =       1
     restraint_wt =   3.00000

Molecular dynamics:
     nstlim  =    500000, nscm    =         0, nrespa  =         1
     t       =   0.00000, dt      =   0.00200, vlimit  =  -1.00000

Langevin dynamics temperature regulation:
     ig      =  647988
     temp0   = 300.00000, tempi   = 300.00000, gamma_ln=   1.00000

Pressure regulation:
     ntp     =       1
     pres0   =   1.01325, comp    =  44.60000, taup    =   5.00000

SHAKE:
     ntc     =       2, jfastw  =       0
     tol     =   0.00001

Ewald parameters:
     verbose =       0, ew_type =       0, nbflag  =       1, use_pme =       1
     vdwmeth =       1, eedmeth =       1, netfrc  =       1
     Box X =   70.581   Box Y =   70.581   Box Z =   70.581
     Alpha =  109.471   Beta  =  109.471   Gamma =  109.471
     NFFT1 =   72       NFFT2 =   72       NFFT3 =   72
     Cutoff=   10.000   Tol   =0.100E-04
     Ewald Coefficient =  0.27511
     Interpolation order =    4

    LOADING THE CONSTRAINED ATOMS AS GROUPS

   5.  REFERENCE ATOM COORDINATES

  default_name
     Mask :1-275; matches  4189 atoms

--------------------------------------------------------------------------------
   3.  ATOMIC COORDINATES AND VELOCITIES
--------------------------------------------------------------------------------

default_name
 begin time read from input coords =  3000.000 ps

 Number of triangulated 3-point waters found:     7501

     Sum of charges from parm topology file =  -0.00000010
     Forcing neutrality...

--------------------------------------------------------------------------------
   4.  RESULTS
 NSTEP =     1000   TIME(PS) =    3002.000  TEMP(K) =   298.49  PRESS =  -336.4
 Etot   =    -63893.9005  EKtot   =     16466.7832  EPtot      =    -80360.6837
 BOND   =       761.2284  ANGLE   =      1954.5961  DIHED      =      3318.2129
 1-4 NB =       948.4563  1-4 EEL =     11192.9413  VDWAALS    =      7859.6862
 EELEC  =   -106986.5301  EHBOND  =         0.0000  RESTRAINT  =       590.7252
 EAMBER (non-restraint)  =    -80951.4089
 EKCMT  =      6768.4587  VIRIAL  =      8730.4630  VOLUME     =    270110.8626
                                                    Density    =         1.0166
 ------------------------------------------------------------------------------

      A V E R A G E S   O V E R     500 S T E P S

 NSTEP =   500000   TIME(PS) =    4000.000  TEMP(K) =   300.13  PRESS =   -19.1
 Etot   =    -63855.9675  EKtot   =     16557.1458  EPtot      =    -80413.1133
 BOND   =       778.9699  ANGLE   =      1994.2679  DIHED      =      3303.0948
 1-4 NB =       954.4112  1-4 EEL =     11221.2455  VDWAALS    =      7934.8565
 EELEC  =   -107212.2863  EHBOND  =         0.0000  RESTRAINT  =       612.3273
 EAMBER (non-restraint)  =    -81025.4406
 EKCMT  =      6748.2603  VIRIAL  =      6859.3582  VOLUME     =    268511.4110
                                                    Density    =         1.0227
 ------------------------------------------------------------------------------

      R M S  F L U C T U A T I O N S

 NSTEP =   500000   TIME(PS) =    4000.000  TEMP(K) =     1.78  PRESS =   186.6
 Etot   =       173.4254  EKtot   =        98.1206  EPtot      =       134.1099
 BOND   =        23.4980  ANGLE   =        32.0231  DIHED      =        15.1644
 1-4 NB =        10.6230  1-4 EEL =        31.1974  VDWAALS    =       127.0840
 EELEC  =       202.0383  EHBOND  =         0.0000  RESTRAINT  =        15.1059
 EAMBER (non-restraint)  =       119.0040
 EKCMT  =        64.6674  VIRIAL  =      1080.0982  VOLUME     =       280.0835
                                                    Density    =         0.0011
 ------------------------------------------------------------------------------
