-------------------------------------------------------
          Amber 18 PMEMD                              2018
          -------------------------------------------------------

  [-O]verwriting output

File Assignments:

 Here is the input file:

constant P
 &cntrl
  imin=0, ntx=5, irest=1,
  ntb=2, ntc=2, ntf=2,
  ntp=1, pres0=1.01325, taup=5,
  nstlim=500000, dt=0.002, cut=10,
  ntt=3, temp0=300, gamma_ln=1,
  ntpr=1000, ntwx=10000, ntwr=10000, tempi=300,ioutfm=1,ig=-1,
  ntr=1, restraintmask=':1-275', restraint_wt=2.0,
 /
 &ewald
 /

Note: ig = -1. Setting random seed to   390749 based on wallclock time in
      microseconds.

--------------------------------------------------------------------------------
   1.  RESOURCE   USE:
--------------------------------------------------------------------------------

 getting box info from netcdf restart file
 NATOM  =   26702 NTYPES =      18 NBONH =   24583 MBONA  =    2144
 NTHETH =    4730 MTHETA =    2896 NPHIH =    9622 MPHIA  =    9100
 NHPARM =       0 NPARM  =       0 NNB   =   53049 NRES   =    7786
 NBONA  =    2144 NTHETA =    2896 NPHIA =    9100 NUMBND =      67
 NUMANG =     150 NPTRA  =     196 NATYP =      38 NPHB   =       1
 IFBOX  =       2 NMXRS  =      24 IFCAP =       0 NEXTRA =       0
 NCOPY  =       0

     BOX TYPE: TRUNCATED OCTAHEDRON

--------------------------------------------------------------------------------
   2.  CONTROL  DATA  FOR  THE  RUN
--------------------------------------------------------------------------------

default_name

General flags:
     imin    =       0, nmropt  =       0

Nature and format of input:
     ntx     =       5, irest   =       1, ntrx    =       1

Nature and format of output:
     ntxo    =       2, ntpr    =    1000, ntrx    =       1, ntwr    =   10000
     iwrap   =       0, ntwx    =   10000, ntwv    =       0, ntwe    =       0
     ioutfm  =       1, ntwprt  =       0, idecomp =       0, rbornstat=      0

Potential function:
     ntf     =       2, ntb     =       2, igb     =       0, nsnb    =      25
     ipol    =       0, gbsa    =       0, iesp    =       0
     dielc   =   1.00000, cut     =  10.00000, intdiel =   1.00000
     lj1264  =       1

Frozen or restrained atoms:
     ibelly  =       0, ntr     =       1
     restraint_wt =   2.00000

Molecular dynamics:
     nstlim  =    500000, nscm    =         0, nrespa  =         1
     t       =   0.00000, dt      =   0.00200, vlimit  =  -1.00000

Langevin dynamics temperature regulation:
     ig      =  390749
     temp0   = 300.00000, tempi   = 300.00000, gamma_ln=   1.00000

Pressure regulation:
     ntp     =       1
     pres0   =   1.01325, comp    =  44.60000, taup    =   5.00000

SHAKE:
     ntc     =       2, jfastw  =       0
     tol     =   0.00001

Ewald parameters:
     verbose =       0, ew_type =       0, nbflag  =       1, use_pme =       1
     vdwmeth =       1, eedmeth =       1, netfrc  =       1
     Box X =   70.366   Box Y =   70.366   Box Z =   70.366
     Alpha =  109.471   Beta  =  109.471   Gamma =  109.471
     NFFT1 =   72       NFFT2 =   72       NFFT3 =   72
     Cutoff=   10.000   Tol   =0.100E-04
     Ewald Coefficient =  0.27511
     Interpolation order =    4

    LOADING THE CONSTRAINED ATOMS AS GROUPS

   5.  REFERENCE ATOM COORDINATES

  default_name
     Mask :1-275; matches  4189 atoms

--------------------------------------------------------------------------------
   3.  ATOMIC COORDINATES AND VELOCITIES
--------------------------------------------------------------------------------

default_name
 begin time read from input coords =  4000.000 ps

 Number of triangulated 3-point waters found:     7501

     Sum of charges from parm topology file =  -0.00000010
     Forcing neutrality...

--------------------------------------------------------------------------------
   4.  RESULTS
 NSTEP =     1000   TIME(PS) =    4002.000  TEMP(K) =   300.51  PRESS =  -105.4
 Etot   =    -64112.2967  EKtot   =     16578.1016  EPtot      =    -80690.3983
 BOND   =       765.2631  ANGLE   =      1962.6084  DIHED      =      3314.9023
 1-4 NB =       960.1601  1-4 EEL =     11261.1745  VDWAALS    =      7959.5671
 EELEC  =   -107438.4239  EHBOND  =         0.0000  RESTRAINT  =       524.3501
 EAMBER (non-restraint)  =    -81214.7484
 EKCMT  =      6756.5503  VIRIAL  =      7365.7286  VOLUME     =    267614.4658
                                                    Density    =         1.0261
 ------------------------------------------------------------------------------

      A V E R A G E S   O V E R     500 S T E P S

 NSTEP =   500000   TIME(PS) =    5000.000  TEMP(K) =   300.12  PRESS =   -23.3
 Etot   =    -64017.5889  EKtot   =     16556.9482  EPtot      =    -80574.5371
 BOND   =       784.2835  ANGLE   =      2020.4840  DIHED      =      3311.8836
 1-4 NB =       952.2952  1-4 EEL =     11211.0323  VDWAALS    =      7968.3867
 EELEC  =   -107344.0476  EHBOND  =         0.0000  RESTRAINT  =       521.1453
 EAMBER (non-restraint)  =    -81095.6824
 EKCMT  =      6748.9824  VIRIAL  =      6883.5595  VOLUME     =    267212.9970
                                                    Density    =         1.0276
 ------------------------------------------------------------------------------

      R M S  F L U C T U A T I O N S

 NSTEP =   500000   TIME(PS) =    5000.000  TEMP(K) =     1.82  PRESS =   177.2
 Etot   =       169.5391  EKtot   =       100.4937  EPtot      =       137.6454
 BOND   =        22.6205  ANGLE   =        35.1095  DIHED      =        15.9804
 1-4 NB =        11.1502  1-4 EEL =        30.5377  VDWAALS    =       126.6210
 EELEC  =       196.7845  EHBOND  =         0.0000  RESTRAINT  =        14.0951
 EAMBER (non-restraint)  =       123.5503
 EKCMT  =        65.6105  VIRIAL  =      1024.5515  VOLUME     =       243.9267
                                                    Density    =         0.0009
 ------------------------------------------------------------------------------
