-------------------------------------------------------
          Amber 18 PMEMD                              2018
          -------------------------------------------------------

  [-O]verwriting output

File Assignments:

 Here is the input file:

constant P
 &cntrl
  imin=0, ntx=5, irest=1,
  ntb=2, ntc=2, ntf=2,
  ntp=1, pres0=1.01325, taup=5,
  nstlim=500000, dt=0.002, cut=10,
  ntt=3, temp0=300, gamma_ln=1,
  ntpr=1000, ntwx=10000, ntwr=10000, tempi=300,ioutfm=1,ig=-1,
  ntr=1, restraintmask=':1-275', restraint_wt=1.0,
 /
 &ewald
 /

Note: ig = -1. Setting random seed to   173337 based on wallclock time in
      microseconds.

--------------------------------------------------------------------------------
   1.  RESOURCE   USE:
--------------------------------------------------------------------------------

 getting box info from netcdf restart file
 NATOM  =   26702 NTYPES =      18 NBONH =   24583 MBONA  =    2144
 NTHETH =    4730 MTHETA =    2896 NPHIH =    9622 MPHIA  =    9100
 NHPARM =       0 NPARM  =       0 NNB   =   53049 NRES   =    7786
 NBONA  =    2144 NTHETA =    2896 NPHIA =    9100 NUMBND =      67
 NUMANG =     150 NPTRA  =     196 NATYP =      38 NPHB   =       1
 IFBOX  =       2 NMXRS  =      24 IFCAP =       0 NEXTRA =       0
 NCOPY  =       0

     BOX TYPE: TRUNCATED OCTAHEDRON

--------------------------------------------------------------------------------
   2.  CONTROL  DATA  FOR  THE  RUN
--------------------------------------------------------------------------------

default_name

General flags:
     imin    =       0, nmropt  =       0

Nature and format of input:
     ntx     =       5, irest   =       1, ntrx    =       1

Nature and format of output:
     ntxo    =       2, ntpr    =    1000, ntrx    =       1, ntwr    =   10000
     iwrap   =       0, ntwx    =   10000, ntwv    =       0, ntwe    =       0
     ioutfm  =       1, ntwprt  =       0, idecomp =       0, rbornstat=      0

Potential function:
     ntf     =       2, ntb     =       2, igb     =       0, nsnb    =      25
     ipol    =       0, gbsa    =       0, iesp    =       0
     dielc   =   1.00000, cut     =  10.00000, intdiel =   1.00000
     lj1264  =       1

Frozen or restrained atoms:
     ibelly  =       0, ntr     =       1
     restraint_wt =   1.00000

Molecular dynamics:
     nstlim  =    500000, nscm    =         0, nrespa  =         1
     t       =   0.00000, dt      =   0.00200, vlimit  =  -1.00000

Langevin dynamics temperature regulation:
     ig      =  173337
     temp0   = 300.00000, tempi   = 300.00000, gamma_ln=   1.00000

Pressure regulation:
     ntp     =       1
     pres0   =   1.01325, comp    =  44.60000, taup    =   5.00000

SHAKE:
     ntc     =       2, jfastw  =       0
     tol     =   0.00001

Ewald parameters:
     verbose =       0, ew_type =       0, nbflag  =       1, use_pme =       1
     vdwmeth =       1, eedmeth =       1, netfrc  =       1
     Box X =   70.276   Box Y =   70.276   Box Z =   70.276
     Alpha =  109.471   Beta  =  109.471   Gamma =  109.471
     NFFT1 =   72       NFFT2 =   72       NFFT3 =   72
     Cutoff=   10.000   Tol   =0.100E-04
     Ewald Coefficient =  0.27511
     Interpolation order =    4

    LOADING THE CONSTRAINED ATOMS AS GROUPS

   5.  REFERENCE ATOM COORDINATES

  default_name
     Mask :1-275; matches  4189 atoms

--------------------------------------------------------------------------------
   3.  ATOMIC COORDINATES AND VELOCITIES
--------------------------------------------------------------------------------

default_name
 begin time read from input coords =  5000.000 ps

 Number of triangulated 3-point waters found:     7501

     Sum of charges from parm topology file =  -0.00000010
     Forcing neutrality...

--------------------------------------------------------------------------------
   4.  RESULTS
 NSTEP =     1000   TIME(PS) =    5002.000  TEMP(K) =   300.82  PRESS =   -18.4
 Etot   =    -64172.6313  EKtot   =     16595.4219  EPtot      =    -80768.0532
 BOND   =       759.3226  ANGLE   =      2087.3997  DIHED      =      3323.0439
 1-4 NB =       945.3833  1-4 EEL =     11244.8304  VDWAALS    =      8252.4565
 EELEC  =   -107764.3043  EHBOND  =         0.0000  RESTRAINT  =       383.8147
 EAMBER (non-restraint)  =    -81151.8679
 EKCMT  =      6836.7089  VIRIAL  =      6942.9512  VOLUME     =    266842.7871
                                                    Density    =         1.0291
 ------------------------------------------------------------------------------

      A V E R A G E S   O V E R     500 S T E P S

 NSTEP =   500000   TIME(PS) =    6000.000  TEMP(K) =   300.07  PRESS =    -2.3
 Etot   =    -64196.9108  EKtot   =     16554.2247  EPtot      =    -80751.1354
 BOND   =       788.0740  ANGLE   =      2045.6898  DIHED      =      3320.0837
 1-4 NB =       955.4138  1-4 EEL =     11218.3596  VDWAALS    =      8006.7757
 EELEC  =   -107469.1011  EHBOND  =         0.0000  RESTRAINT  =       383.5689
 EAMBER (non-restraint)  =    -81134.7044
 EKCMT  =      6749.7164  VIRIAL  =      6763.0019  VOLUME     =    266232.9724
                                                    Density    =         1.0314
 ------------------------------------------------------------------------------

      R M S  F L U C T U A T I O N S

 NSTEP =   500000   TIME(PS) =    6000.000  TEMP(K) =     1.75  PRESS =   190.3
 Etot   =       174.2340  EKtot   =        96.3651  EPtot      =       137.6075
 BOND   =        23.7296  ANGLE   =        34.0696  DIHED      =        16.4980
 1-4 NB =        11.5004  1-4 EEL =        32.1570  VDWAALS    =       135.9933
 EELEC  =       216.3880  EHBOND  =         0.0000  RESTRAINT  =        10.8790
 EAMBER (non-restraint)  =       126.7286
 EKCMT  =        62.1703  VIRIAL  =      1093.4681  VOLUME     =       232.8326
                                                    Density    =         0.0009
 ------------------------------------------------------------------------------
