-------------------------------------------------------
          Amber 18 PMEMD                              2018
          -------------------------------------------------------

  [-O]verwriting output

File Assignments:

 Here is the input file:

Sampling at constant P
 &cntrl
  imin=0, ntx=5, irest=1,
  ntb=2, ntc=2, ntf=2,  ioutfm=1,
  ntp=1, pres0=1.01325, taup=5,
  nstlim=3000000, dt=0.002, cut=10,
  ntt=3, tempi=300, temp0=300, gamma_ln=1,
  ntpr=10000, ntwx=10000, ntwr=10000,
 /
 &ewald
 /

Note: ig = -1. Setting random seed to   720773 based on wallclock time in
      microseconds.

--------------------------------------------------------------------------------
   1.  RESOURCE   USE:
--------------------------------------------------------------------------------

 getting box info from netcdf restart file
 NATOM  =   26702 NTYPES =      18 NBONH =   24583 MBONA  =    2144
 NTHETH =    4730 MTHETA =    2896 NPHIH =    9622 MPHIA  =    9100
 NHPARM =       0 NPARM  =       0 NNB   =   53049 NRES   =    7786
 NBONA  =    2144 NTHETA =    2896 NPHIA =    9100 NUMBND =      67
 NUMANG =     150 NPTRA  =     196 NATYP =      38 NPHB   =       1
 IFBOX  =       2 NMXRS  =      24 IFCAP =       0 NEXTRA =       0
 NCOPY  =       0

     BOX TYPE: TRUNCATED OCTAHEDRON

--------------------------------------------------------------------------------
   2.  CONTROL  DATA  FOR  THE  RUN
--------------------------------------------------------------------------------

default_name

General flags:
     imin    =       0, nmropt  =       0

Nature and format of input:
     ntx     =       5, irest   =       1, ntrx    =       1

Nature and format of output:
     ntxo    =       2, ntpr    =   10000, ntrx    =       1, ntwr    =   10000
     iwrap   =       0, ntwx    =   10000, ntwv    =       0, ntwe    =       0
     ioutfm  =       1, ntwprt  =       0, idecomp =       0, rbornstat=      0

Potential function:
     ntf     =       2, ntb     =       2, igb     =       0, nsnb    =      25
     ipol    =       0, gbsa    =       0, iesp    =       0
     dielc   =   1.00000, cut     =  10.00000, intdiel =   1.00000
     lj1264  =       1

Frozen or restrained atoms:
     ibelly  =       0, ntr     =       0

Molecular dynamics:
     nstlim  =   3000000, nscm    =      1000, nrespa  =         1
     t       =   0.00000, dt      =   0.00200, vlimit  =  -1.00000

Langevin dynamics temperature regulation:
     ig      =  720773
     temp0   = 300.00000, tempi   = 300.00000, gamma_ln=   1.00000

Pressure regulation:
     ntp     =       1
     pres0   =   1.01325, comp    =  44.60000, taup    =   5.00000

SHAKE:
     ntc     =       2, jfastw  =       0
     tol     =   0.00001

Ewald parameters:
     verbose =       0, ew_type =       0, nbflag  =       1, use_pme =       1
     vdwmeth =       1, eedmeth =       1, netfrc  =       1
     Box X =   70.075   Box Y =   70.075   Box Z =   70.075
     Alpha =  109.471   Beta  =  109.471   Gamma =  109.471
     NFFT1 =   72       NFFT2 =   72       NFFT3 =   72
     Cutoff=   10.000   Tol   =0.100E-04
     Ewald Coefficient =  0.27511
     Interpolation order =    4

--------------------------------------------------------------------------------
   3.  ATOMIC COORDINATES AND VELOCITIES
--------------------------------------------------------------------------------

default_name
 begin time read from input coords =  7000.000 ps

 Number of triangulated 3-point waters found:     7501

     Sum of charges from parm topology file =  -0.00000010
     Forcing neutrality...

--------------------------------------------------------------------------------
   4.  RESULTS
 NSTEP =    10000   TIME(PS) =    7020.000  TEMP(K) =   298.99  PRESS =  -144.2
 Etot   =    -64826.0767  EKtot   =     16494.4766  EPtot      =    -81320.5533
 BOND   =       806.4737  ANGLE   =      2057.5212  DIHED      =      3322.7907
 1-4 NB =       936.2405  1-4 EEL =     11186.7734  VDWAALS    =      8161.6938
 EELEC  =   -107792.0467  EHBOND  =         0.0000  RESTRAINT  =         0.0000
 EKCMT  =      6723.1772  VIRIAL  =      7548.4722  VOLUME     =    264991.3159
                                                    Density    =         1.0363
 ------------------------------------------------------------------------------

      A V E R A G E S   O V E R     300 S T E P S

 NSTEP =  3000000   TIME(PS) =   13000.000  TEMP(K) =   299.96  PRESS =    -9.5
 Etot   =    -64625.4858  EKtot   =     16547.9831  EPtot      =    -81173.4689
 BOND   =       804.2752  ANGLE   =      2084.3905  DIHED      =      3323.5731
 1-4 NB =       950.7019  1-4 EEL =     11200.0736  VDWAALS    =      8095.6151
 EELEC  =   -107632.0983  EHBOND  =         0.0000  RESTRAINT  =         0.0000
 EKCMT  =      6741.6608  VIRIAL  =      6795.9194  VOLUME     =    264964.3470
                                                    Density    =         1.0364
 ------------------------------------------------------------------------------

      R M S  F L U C T U A T I O N S

 NSTEP =  3000000   TIME(PS) =   13000.000  TEMP(K) =     1.72  PRESS =   180.9
 Etot   =       177.9385  EKtot   =        94.6174  EPtot      =       144.6278
 BOND   =        23.3648  ANGLE   =        36.5993  DIHED      =        18.3156
 1-4 NB =        13.0418  1-4 EEL =        38.2934  VDWAALS    =       133.8503
 EELEC  =       210.0806  EHBOND  =         0.0000  RESTRAINT  =         0.0000
 EKCMT  =        66.5422  VIRIAL  =      1035.4860  VOLUME     =       244.4577
                                                    Density    =         0.0010
 ------------------------------------------------------------------------------
