-------------------------------------------------------
          Amber 18 PMEMD                              2018
          -------------------------------------------------------

  [-O]verwriting output

File Assignments:

 Here is the input file:

constant P
 &cntrl
  imin=0, ntx=5, irest=1,
  ntb=2, ntc=2, ntf=2,
  ntp=1, pres0=1.01325, taup=5,
  nstlim=500000, dt=0.002, cut=10,
  ntt=3, temp0=300, gamma_ln=1,
  ntpr=1000, ntwx=10000, ntwr=10000, tempi=300,ioutfm=1,ig=-1,
  ntr=1, restraintmask=':1-275', restraint_wt=5.0,
 /
 &ewald
 /

Note: ig = -1. Setting random seed to   889698 based on wallclock time in
      microseconds.

--------------------------------------------------------------------------------
   1.  RESOURCE   USE:
--------------------------------------------------------------------------------

 getting box info from netcdf restart file
 NATOM  =   26702 NTYPES =      18 NBONH =   24583 MBONA  =    2144
 NTHETH =    4730 MTHETA =    2896 NPHIH =    9622 MPHIA  =    9100
 NHPARM =       0 NPARM  =       0 NNB   =   53049 NRES   =    7786
 NBONA  =    2144 NTHETA =    2896 NPHIA =    9100 NUMBND =      67
 NUMANG =     150 NPTRA  =     196 NATYP =      38 NPHB   =       1
 IFBOX  =       2 NMXRS  =      24 IFCAP =       0 NEXTRA =       0
 NCOPY  =       0

     BOX TYPE: TRUNCATED OCTAHEDRON

--------------------------------------------------------------------------------
   2.  CONTROL  DATA  FOR  THE  RUN
--------------------------------------------------------------------------------

default_name

General flags:
     imin    =       0, nmropt  =       0

Nature and format of input:
     ntx     =       5, irest   =       1, ntrx    =       1

Nature and format of output:
     ntxo    =       2, ntpr    =    1000, ntrx    =       1, ntwr    =   10000
     iwrap   =       0, ntwx    =   10000, ntwv    =       0, ntwe    =       0
     ioutfm  =       1, ntwprt  =       0, idecomp =       0, rbornstat=      0

Potential function:
     ntf     =       2, ntb     =       2, igb     =       0, nsnb    =      25
     ipol    =       0, gbsa    =       0, iesp    =       0
     dielc   =   1.00000, cut     =  10.00000, intdiel =   1.00000
     lj1264  =       1

Frozen or restrained atoms:
     ibelly  =       0, ntr     =       1
     restraint_wt =   5.00000

Molecular dynamics:
     nstlim  =    500000, nscm    =         0, nrespa  =         1
     t       =   0.00000, dt      =   0.00200, vlimit  =  -1.00000

Langevin dynamics temperature regulation:
     ig      =  889698
     temp0   = 300.00000, tempi   = 300.00000, gamma_ln=   1.00000

Pressure regulation:
     ntp     =       1
     pres0   =   1.01325, comp    =  44.60000, taup    =   5.00000

SHAKE:
     ntc     =       2, jfastw  =       0
     tol     =   0.00001

Ewald parameters:
     verbose =       0, ew_type =       0, nbflag  =       1, use_pme =       1
     vdwmeth =       1, eedmeth =       1, netfrc  =       1
     Box X =   73.786   Box Y =   73.786   Box Z =   73.786
     Alpha =  109.471   Beta  =  109.471   Gamma =  109.471
     NFFT1 =   80       NFFT2 =   80       NFFT3 =   80
     Cutoff=   10.000   Tol   =0.100E-04
     Ewald Coefficient =  0.27511
     Interpolation order =    4

    LOADING THE CONSTRAINED ATOMS AS GROUPS

   5.  REFERENCE ATOM COORDINATES

  default_name
     Mask :1-275; matches  4189 atoms

--------------------------------------------------------------------------------
   3.  ATOMIC COORDINATES AND VELOCITIES
--------------------------------------------------------------------------------

default_name
 begin time read from input coords =  1000.000 ps

 Number of triangulated 3-point waters found:     7501

     Sum of charges from parm topology file =  -0.00000010
     Forcing neutrality...

--------------------------------------------------------------------------------
   4.  RESULTS
 NSTEP =     1000   TIME(PS) =    1002.000  TEMP(K) =   299.36  PRESS =  -610.9
 Etot   =    -63011.0711  EKtot   =     16514.8203  EPtot      =    -79525.8914
 BOND   =       764.5622  ANGLE   =      1958.1458  DIHED      =      3268.9984
 1-4 NB =       936.4724  1-4 EEL =     11223.8317  VDWAALS    =      7946.1908
 EELEC  =   -106350.9485  EHBOND  =         0.0000  RESTRAINT  =       726.8558
 EAMBER (non-restraint)  =    -80252.7472
 EKCMT  =      6718.8400  VIRIAL  =     10759.6772  VOLUME     =    306350.1413
                                                    Density    =         0.8964
 ------------------------------------------------------------------------------

      A V E R A G E S   O V E R     500 S T E P S

 NSTEP =   500000   TIME(PS) =    2000.000  TEMP(K) =   300.03  PRESS =   -18.6
 Etot   =    -63176.8032  EKtot   =     16552.1534  EPtot      =    -79728.9565
 BOND   =       772.7236  ANGLE   =      1967.9628  DIHED      =      3284.2507
 1-4 NB =       944.9270  1-4 EEL =     11204.7821  VDWAALS    =      7823.5609
 EELEC  =   -106525.4890  EHBOND  =         0.0000  RESTRAINT  =       798.3254
 EAMBER (non-restraint)  =    -80527.2819
 EKCMT  =      6747.7497  VIRIAL  =      6862.2648  VOLUME     =    276093.0504
                                                    Density    =         0.9948
 ------------------------------------------------------------------------------

      R M S  F L U C T U A T I O N S

 NSTEP =   500000   TIME(PS) =    2000.000  TEMP(K) =     1.78  PRESS =   188.1
 Etot   =       164.2026  EKtot   =        97.9581  EPtot      =       133.5369
 BOND   =        21.7109  ANGLE   =        32.9913  DIHED      =        14.9917
 1-4 NB =        10.7859  1-4 EEL =        28.0670  VDWAALS    =       126.0723
 EELEC  =       200.6053  EHBOND  =         0.0000  RESTRAINT  =        19.9598
 EAMBER (non-restraint)  =       113.5772
 EKCMT  =        64.8726  VIRIAL  =      1124.4668  VOLUME     =      3987.7021
                                                    Density    =         0.0135
 ------------------------------------------------------------------------------
