-------------------------------------------------------
          Amber 18 PMEMD                              2018
          -------------------------------------------------------

  [-O]verwriting output

File Assignments:

 Here is the input file:

constant P
 &cntrl
  imin=0, ntx=5, irest=1,
  ntb=2, ntc=2, ntf=2,
  ntp=1, pres0=1.01325, taup=5,
  nstlim=500000, dt=0.002, cut=10,
  ntt=3, temp0=300, gamma_ln=1,
  ntpr=1000, ntwx=10000, ntwr=10000, tempi=300,ioutfm=1,ig=-1,
  ntr=1, restraintmask=':1-275', restraint_wt=4.0,
 /
 &ewald
 /

Note: ig = -1. Setting random seed to   559679 based on wallclock time in
      microseconds.

--------------------------------------------------------------------------------
   1.  RESOURCE   USE:
--------------------------------------------------------------------------------

 getting box info from netcdf restart file
 NATOM  =   26702 NTYPES =      18 NBONH =   24583 MBONA  =    2144
 NTHETH =    4730 MTHETA =    2896 NPHIH =    9622 MPHIA  =    9100
 NHPARM =       0 NPARM  =       0 NNB   =   53049 NRES   =    7786
 NBONA  =    2144 NTHETA =    2896 NPHIA =    9100 NUMBND =      67
 NUMANG =     150 NPTRA  =     196 NATYP =      38 NPHB   =       1
 IFBOX  =       2 NMXRS  =      24 IFCAP =       0 NEXTRA =       0
 NCOPY  =       0

     BOX TYPE: TRUNCATED OCTAHEDRON

--------------------------------------------------------------------------------
   2.  CONTROL  DATA  FOR  THE  RUN
--------------------------------------------------------------------------------

default_name

General flags:
     imin    =       0, nmropt  =       0

Nature and format of input:
     ntx     =       5, irest   =       1, ntrx    =       1

Nature and format of output:
     ntxo    =       2, ntpr    =    1000, ntrx    =       1, ntwr    =   10000
     iwrap   =       0, ntwx    =   10000, ntwv    =       0, ntwe    =       0
     ioutfm  =       1, ntwprt  =       0, idecomp =       0, rbornstat=      0

Potential function:
     ntf     =       2, ntb     =       2, igb     =       0, nsnb    =      25
     ipol    =       0, gbsa    =       0, iesp    =       0
     dielc   =   1.00000, cut     =  10.00000, intdiel =   1.00000
     lj1264  =       1

Frozen or restrained atoms:
     ibelly  =       0, ntr     =       1
     restraint_wt =   4.00000

Molecular dynamics:
     nstlim  =    500000, nscm    =         0, nrespa  =         1
     t       =   0.00000, dt      =   0.00200, vlimit  =  -1.00000

Langevin dynamics temperature regulation:
     ig      =  559679
     temp0   = 300.00000, tempi   = 300.00000, gamma_ln=   1.00000

Pressure regulation:
     ntp     =       1
     pres0   =   1.01325, comp    =  44.60000, taup    =   5.00000

SHAKE:
     ntc     =       2, jfastw  =       0
     tol     =   0.00001

Ewald parameters:
     verbose =       0, ew_type =       0, nbflag  =       1, use_pme =       1
     vdwmeth =       1, eedmeth =       1, netfrc  =       1
     Box X =   70.972   Box Y =   70.972   Box Z =   70.972
     Alpha =  109.471   Beta  =  109.471   Gamma =  109.471
     NFFT1 =   72       NFFT2 =   72       NFFT3 =   72
     Cutoff=   10.000   Tol   =0.100E-04
     Ewald Coefficient =  0.27511
     Interpolation order =    4

    LOADING THE CONSTRAINED ATOMS AS GROUPS

   5.  REFERENCE ATOM COORDINATES

  default_name
     Mask :1-275; matches  4189 atoms

--------------------------------------------------------------------------------
   3.  ATOMIC COORDINATES AND VELOCITIES
--------------------------------------------------------------------------------

default_name
 begin time read from input coords =  2000.000 ps

 Number of triangulated 3-point waters found:     7501

     Sum of charges from parm topology file =  -0.00000010
     Forcing neutrality...

--------------------------------------------------------------------------------
   4.  RESULTS
 NSTEP =     1000   TIME(PS) =    2002.000  TEMP(K) =   299.27  PRESS =  -411.2
 Etot   =    -63218.6209  EKtot   =     16510.0605  EPtot      =    -79728.6815
 BOND   =       802.6973  ANGLE   =      2022.5572  DIHED      =      3299.1150
 1-4 NB =       934.2723  1-4 EEL =     11214.8225  VDWAALS    =      7554.4261
 EELEC  =   -106244.5103  EHBOND  =         0.0000  RESTRAINT  =       687.9383
 EAMBER (non-restraint)  =    -80416.6198
 EKCMT  =      6767.4877  VIRIAL  =      9196.2390  VOLUME     =    273591.9184
                                                    Density    =         1.0037
 ------------------------------------------------------------------------------

      A V E R A G E S   O V E R     500 S T E P S

 NSTEP =   500000   TIME(PS) =    3000.000  TEMP(K) =   299.97  PRESS =   -20.1
 Etot   =    -63591.9065  EKtot   =     16548.3692  EPtot      =    -80140.2757
 BOND   =       774.2645  ANGLE   =      1981.6413  DIHED      =      3296.0225
 1-4 NB =       950.1405  1-4 EEL =     11215.6725  VDWAALS    =      7906.5577
 EELEC  =   -106965.9398  EHBOND  =         0.0000  RESTRAINT  =       701.3651
 EAMBER (non-restraint)  =    -80841.6408
 EKCMT  =      6743.6426  VIRIAL  =      6860.9425  VOLUME     =    270729.9967
                                                    Density    =         1.0143
 ------------------------------------------------------------------------------

      R M S  F L U C T U A T I O N S

 NSTEP =   500000   TIME(PS) =    3000.000  TEMP(K) =     1.73  PRESS =   190.5
 Etot   =       172.0360  EKtot   =        95.4387  EPtot      =       143.9894
 BOND   =        22.8144  ANGLE   =        32.8006  DIHED      =        14.4284
 1-4 NB =        10.9353  1-4 EEL =        30.2840  VDWAALS    =       141.3552
 EELEC  =       223.8011  EHBOND  =         0.0000  RESTRAINT  =        15.7354
 EAMBER (non-restraint)  =       128.2540
 EKCMT  =        63.9097  VIRIAL  =      1115.6075  VOLUME     =       282.4626
                                                    Density    =         0.0011
 ------------------------------------------------------------------------------
