-------------------------------------------------------
          Amber 18 PMEMD                              2018
          -------------------------------------------------------

  [-O]verwriting output

File Assignments:

 Here is the input file:

constant P
 &cntrl
  imin=0, ntx=5, irest=1,
  ntb=2, ntc=2, ntf=2,
  ntp=1, pres0=1.01325, taup=5,
  nstlim=500000, dt=0.002, cut=10,
  ntt=3, temp0=300, gamma_ln=1,
  ntpr=1000, ntwx=10000, ntwr=10000, tempi=300,ioutfm=1,ig=-1,
  ntr=1, restraintmask=':1-275', restraint_wt=3.0,
 /
 &ewald
 /

Note: ig = -1. Setting random seed to   634187 based on wallclock time in
      microseconds.

--------------------------------------------------------------------------------
   1.  RESOURCE   USE:
--------------------------------------------------------------------------------

 getting box info from netcdf restart file
 NATOM  =   26702 NTYPES =      18 NBONH =   24583 MBONA  =    2144
 NTHETH =    4730 MTHETA =    2896 NPHIH =    9622 MPHIA  =    9100
 NHPARM =       0 NPARM  =       0 NNB   =   53049 NRES   =    7786
 NBONA  =    2144 NTHETA =    2896 NPHIA =    9100 NUMBND =      67
 NUMANG =     150 NPTRA  =     196 NATYP =      38 NPHB   =       1
 IFBOX  =       2 NMXRS  =      24 IFCAP =       0 NEXTRA =       0
 NCOPY  =       0

     BOX TYPE: TRUNCATED OCTAHEDRON

--------------------------------------------------------------------------------
   2.  CONTROL  DATA  FOR  THE  RUN
--------------------------------------------------------------------------------

default_name

General flags:
     imin    =       0, nmropt  =       0

Nature and format of input:
     ntx     =       5, irest   =       1, ntrx    =       1

Nature and format of output:
     ntxo    =       2, ntpr    =    1000, ntrx    =       1, ntwr    =   10000
     iwrap   =       0, ntwx    =   10000, ntwv    =       0, ntwe    =       0
     ioutfm  =       1, ntwprt  =       0, idecomp =       0, rbornstat=      0

Potential function:
     ntf     =       2, ntb     =       2, igb     =       0, nsnb    =      25
     ipol    =       0, gbsa    =       0, iesp    =       0
     dielc   =   1.00000, cut     =  10.00000, intdiel =   1.00000
     lj1264  =       1

Frozen or restrained atoms:
     ibelly  =       0, ntr     =       1
     restraint_wt =   3.00000

Molecular dynamics:
     nstlim  =    500000, nscm    =         0, nrespa  =         1
     t       =   0.00000, dt      =   0.00200, vlimit  =  -1.00000

Langevin dynamics temperature regulation:
     ig      =  634187
     temp0   = 300.00000, tempi   = 300.00000, gamma_ln=   1.00000

Pressure regulation:
     ntp     =       1
     pres0   =   1.01325, comp    =  44.60000, taup    =   5.00000

SHAKE:
     ntc     =       2, jfastw  =       0
     tol     =   0.00001

Ewald parameters:
     verbose =       0, ew_type =       0, nbflag  =       1, use_pme =       1
     vdwmeth =       1, eedmeth =       1, netfrc  =       1
     Box X =   70.578   Box Y =   70.578   Box Z =   70.578
     Alpha =  109.471   Beta  =  109.471   Gamma =  109.471
     NFFT1 =   72       NFFT2 =   72       NFFT3 =   72
     Cutoff=   10.000   Tol   =0.100E-04
     Ewald Coefficient =  0.27511
     Interpolation order =    4

    LOADING THE CONSTRAINED ATOMS AS GROUPS

   5.  REFERENCE ATOM COORDINATES

  default_name
     Mask :1-275; matches  4189 atoms

--------------------------------------------------------------------------------
   3.  ATOMIC COORDINATES AND VELOCITIES
--------------------------------------------------------------------------------

default_name
 begin time read from input coords =  3000.000 ps

 Number of triangulated 3-point waters found:     7501

     Sum of charges from parm topology file =  -0.00000010
     Forcing neutrality...

--------------------------------------------------------------------------------
   4.  RESULTS
 NSTEP =     1000   TIME(PS) =    3002.000  TEMP(K) =   297.73  PRESS =   198.5
 Etot   =    -64108.5902  EKtot   =     16425.2090  EPtot      =    -80533.7992
 BOND   =       754.5888  ANGLE   =      1977.1627  DIHED      =      3312.2912
 1-4 NB =       974.6468  1-4 EEL =     11259.3303  VDWAALS    =      8171.1037
 EELEC  =   -107599.8064  EHBOND  =         0.0000  RESTRAINT  =       616.8836
 EAMBER (non-restraint)  =    -81150.6829
 EKCMT  =      6760.5288  VIRIAL  =      5603.6217  VOLUME     =    269900.8437
                                                    Density    =         1.0174
 ------------------------------------------------------------------------------

      A V E R A G E S   O V E R     500 S T E P S

 NSTEP =   500000   TIME(PS) =    4000.000  TEMP(K) =   299.98  PRESS =    -4.3
 Etot   =    -63783.7660  EKtot   =     16549.2001  EPtot      =    -80332.9660
 BOND   =       774.5994  ANGLE   =      1996.5981  DIHED      =      3304.1838
 1-4 NB =       959.8461  1-4 EEL =     11235.3913  VDWAALS    =      7959.3068
 EELEC  =   -107180.2778  EHBOND  =         0.0000  RESTRAINT  =       617.3862
 EAMBER (non-restraint)  =    -80950.3523
 EKCMT  =      6742.4914  VIRIAL  =      6767.4405  VOLUME     =    268645.7529
                                                    Density    =         1.0222
 ------------------------------------------------------------------------------

      R M S  F L U C T U A T I O N S

 NSTEP =   500000   TIME(PS) =    4000.000  TEMP(K) =     1.70  PRESS =   183.9
 Etot   =       167.6808  EKtot   =        93.5434  EPtot      =       128.8430
 BOND   =        24.6095  ANGLE   =        35.1230  DIHED      =        15.4875
 1-4 NB =        11.1029  1-4 EEL =        29.4814  VDWAALS    =       126.8120
 EELEC  =       194.4373  EHBOND  =         0.0000  RESTRAINT  =        15.0567
 EAMBER (non-restraint)  =       113.7864
 EKCMT  =        61.0654  VIRIAL  =      1063.8994  VOLUME     =       249.9164
                                                    Density    =         0.0010
 ------------------------------------------------------------------------------
