-------------------------------------------------------
          Amber 18 PMEMD                              2018
          -------------------------------------------------------

  [-O]verwriting output

File Assignments:

 Here is the input file:

constant P
 &cntrl
  imin=0, ntx=5, irest=1,
  ntb=2, ntc=2, ntf=2,
  ntp=1, pres0=1.01325, taup=5,
  nstlim=500000, dt=0.002, cut=10,
  ntt=3, temp0=300, gamma_ln=1,
  ntpr=1000, ntwx=10000, ntwr=10000, tempi=300,ioutfm=1,ig=-1,
  ntr=1, restraintmask=':1-275', restraint_wt=2.0,
 /
 &ewald
 /

Note: ig = -1. Setting random seed to   775264 based on wallclock time in
      microseconds.

--------------------------------------------------------------------------------
   1.  RESOURCE   USE:
--------------------------------------------------------------------------------

 getting box info from netcdf restart file
 NATOM  =   26702 NTYPES =      18 NBONH =   24583 MBONA  =    2144
 NTHETH =    4730 MTHETA =    2896 NPHIH =    9622 MPHIA  =    9100
 NHPARM =       0 NPARM  =       0 NNB   =   53049 NRES   =    7786
 NBONA  =    2144 NTHETA =    2896 NPHIA =    9100 NUMBND =      67
 NUMANG =     150 NPTRA  =     196 NATYP =      38 NPHB   =       1
 IFBOX  =       2 NMXRS  =      24 IFCAP =       0 NEXTRA =       0
 NCOPY  =       0

     BOX TYPE: TRUNCATED OCTAHEDRON

--------------------------------------------------------------------------------
   2.  CONTROL  DATA  FOR  THE  RUN
--------------------------------------------------------------------------------

default_name

General flags:
     imin    =       0, nmropt  =       0

Nature and format of input:
     ntx     =       5, irest   =       1, ntrx    =       1

Nature and format of output:
     ntxo    =       2, ntpr    =    1000, ntrx    =       1, ntwr    =   10000
     iwrap   =       0, ntwx    =   10000, ntwv    =       0, ntwe    =       0
     ioutfm  =       1, ntwprt  =       0, idecomp =       0, rbornstat=      0

Potential function:
     ntf     =       2, ntb     =       2, igb     =       0, nsnb    =      25
     ipol    =       0, gbsa    =       0, iesp    =       0
     dielc   =   1.00000, cut     =  10.00000, intdiel =   1.00000
     lj1264  =       1

Frozen or restrained atoms:
     ibelly  =       0, ntr     =       1
     restraint_wt =   2.00000

Molecular dynamics:
     nstlim  =    500000, nscm    =         0, nrespa  =         1
     t       =   0.00000, dt      =   0.00200, vlimit  =  -1.00000

Langevin dynamics temperature regulation:
     ig      =  775264
     temp0   = 300.00000, tempi   = 300.00000, gamma_ln=   1.00000

Pressure regulation:
     ntp     =       1
     pres0   =   1.01325, comp    =  44.60000, taup    =   5.00000

SHAKE:
     ntc     =       2, jfastw  =       0
     tol     =   0.00001

Ewald parameters:
     verbose =       0, ew_type =       0, nbflag  =       1, use_pme =       1
     vdwmeth =       1, eedmeth =       1, netfrc  =       1
     Box X =   70.451   Box Y =   70.451   Box Z =   70.451
     Alpha =  109.471   Beta  =  109.471   Gamma =  109.471
     NFFT1 =   72       NFFT2 =   72       NFFT3 =   72
     Cutoff=   10.000   Tol   =0.100E-04
     Ewald Coefficient =  0.27511
     Interpolation order =    4

    LOADING THE CONSTRAINED ATOMS AS GROUPS

   5.  REFERENCE ATOM COORDINATES

  default_name
     Mask :1-275; matches  4189 atoms

--------------------------------------------------------------------------------
   3.  ATOMIC COORDINATES AND VELOCITIES
--------------------------------------------------------------------------------

default_name
 begin time read from input coords =  4000.000 ps

 Number of triangulated 3-point waters found:     7501

     Sum of charges from parm topology file =  -0.00000010
     Forcing neutrality...

--------------------------------------------------------------------------------
   4.  RESULTS
 NSTEP =     1000   TIME(PS) =    4002.000  TEMP(K) =   300.16  PRESS =  -256.0
 Etot   =    -63885.9863  EKtot   =     16558.8066  EPtot      =    -80444.7930
 BOND   =       781.0814  ANGLE   =      1999.8436  DIHED      =      3314.5601
 1-4 NB =       950.1165  1-4 EEL =     11286.2017  VDWAALS    =      7823.7721
 EELEC  =   -107113.3077  EHBOND  =         0.0000  RESTRAINT  =       512.9394
 EAMBER (non-restraint)  =    -80957.7323
 EKCMT  =      6707.0169  VIRIAL  =      8192.2597  VOLUME     =    268679.3874
                                                    Density    =         1.0220
 ------------------------------------------------------------------------------

      A V E R A G E S   O V E R     500 S T E P S

 NSTEP =   500000   TIME(PS) =    5000.000  TEMP(K) =   299.99  PRESS =     0.2
 Etot   =    -63960.1570  EKtot   =     16549.6024  EPtot      =    -80509.7594
 BOND   =       780.8521  ANGLE   =      2019.6990  DIHED      =      3309.8549
 1-4 NB =       957.5969  1-4 EEL =     11232.9215  VDWAALS    =      7987.6382
 EELEC  =   -107325.7538  EHBOND  =         0.0000  RESTRAINT  =       527.4318
 EAMBER (non-restraint)  =    -81037.1912
 EKCMT  =      6745.2586  VIRIAL  =      6744.1175  VOLUME     =    267283.9389
                                                    Density    =         1.0274
 ------------------------------------------------------------------------------

      R M S  F L U C T U A T I O N S

 NSTEP =   500000   TIME(PS) =    5000.000  TEMP(K) =     1.72  PRESS =   183.1
 Etot   =       162.8636  EKtot   =        94.8235  EPtot      =       132.0108
 BOND   =        23.2016  ANGLE   =        33.8535  DIHED      =        16.6644
 1-4 NB =        11.4546  1-4 EEL =        31.5973  VDWAALS    =       129.6425
 EELEC  =       208.1360  EHBOND  =         0.0000  RESTRAINT  =        13.4809
 EAMBER (non-restraint)  =       118.5299
 EKCMT  =        58.8039  VIRIAL  =      1058.3141  VOLUME     =       263.9395
                                                    Density    =         0.0010
 ------------------------------------------------------------------------------
