-------------------------------------------------------
          Amber 18 PMEMD                              2018
          -------------------------------------------------------

  [-O]verwriting output

File Assignments:

 Here is the input file:

constant P
 &cntrl
  imin=0, ntx=5, irest=1,
  ntb=2, ntc=2, ntf=2,
  ntp=1, pres0=1.01325, taup=5,
  nstlim=500000, dt=0.002, cut=10,
  ntt=3, temp0=300, gamma_ln=1,
  ntpr=1000, ntwx=10000, ntwr=10000, tempi=300,ioutfm=1,ig=-1,
  ntr=1, restraintmask=':1-275', restraint_wt=1.0,
 /
 &ewald
 /

Note: ig = -1. Setting random seed to   712766 based on wallclock time in
      microseconds.

--------------------------------------------------------------------------------
   1.  RESOURCE   USE:
--------------------------------------------------------------------------------

 getting box info from netcdf restart file
 NATOM  =   26702 NTYPES =      18 NBONH =   24583 MBONA  =    2144
 NTHETH =    4730 MTHETA =    2896 NPHIH =    9622 MPHIA  =    9100
 NHPARM =       0 NPARM  =       0 NNB   =   53049 NRES   =    7786
 NBONA  =    2144 NTHETA =    2896 NPHIA =    9100 NUMBND =      67
 NUMANG =     150 NPTRA  =     196 NATYP =      38 NPHB   =       1
 IFBOX  =       2 NMXRS  =      24 IFCAP =       0 NEXTRA =       0
 NCOPY  =       0

     BOX TYPE: TRUNCATED OCTAHEDRON

--------------------------------------------------------------------------------
   2.  CONTROL  DATA  FOR  THE  RUN
--------------------------------------------------------------------------------

default_name

General flags:
     imin    =       0, nmropt  =       0

Nature and format of input:
     ntx     =       5, irest   =       1, ntrx    =       1

Nature and format of output:
     ntxo    =       2, ntpr    =    1000, ntrx    =       1, ntwr    =   10000
     iwrap   =       0, ntwx    =   10000, ntwv    =       0, ntwe    =       0
     ioutfm  =       1, ntwprt  =       0, idecomp =       0, rbornstat=      0

Potential function:
     ntf     =       2, ntb     =       2, igb     =       0, nsnb    =      25
     ipol    =       0, gbsa    =       0, iesp    =       0
     dielc   =   1.00000, cut     =  10.00000, intdiel =   1.00000
     lj1264  =       1

Frozen or restrained atoms:
     ibelly  =       0, ntr     =       1
     restraint_wt =   1.00000

Molecular dynamics:
     nstlim  =    500000, nscm    =         0, nrespa  =         1
     t       =   0.00000, dt      =   0.00200, vlimit  =  -1.00000

Langevin dynamics temperature regulation:
     ig      =  712766
     temp0   = 300.00000, tempi   = 300.00000, gamma_ln=   1.00000

Pressure regulation:
     ntp     =       1
     pres0   =   1.01325, comp    =  44.60000, taup    =   5.00000

SHAKE:
     ntc     =       2, jfastw  =       0
     tol     =   0.00001

Ewald parameters:
     verbose =       0, ew_type =       0, nbflag  =       1, use_pme =       1
     vdwmeth =       1, eedmeth =       1, netfrc  =       1
     Box X =   70.287   Box Y =   70.287   Box Z =   70.287
     Alpha =  109.471   Beta  =  109.471   Gamma =  109.471
     NFFT1 =   72       NFFT2 =   72       NFFT3 =   72
     Cutoff=   10.000   Tol   =0.100E-04
     Ewald Coefficient =  0.27511
     Interpolation order =    4

    LOADING THE CONSTRAINED ATOMS AS GROUPS

   5.  REFERENCE ATOM COORDINATES

  default_name
     Mask :1-275; matches  4189 atoms

--------------------------------------------------------------------------------
   3.  ATOMIC COORDINATES AND VELOCITIES
--------------------------------------------------------------------------------

default_name
 begin time read from input coords =  5000.000 ps

 Number of triangulated 3-point waters found:     7501

     Sum of charges from parm topology file =  -0.00000010
     Forcing neutrality...

--------------------------------------------------------------------------------
   4.  RESULTS
 NSTEP =     1000   TIME(PS) =    5002.000  TEMP(K) =   303.06  PRESS =  -118.7
 Etot   =    -63868.9999  EKtot   =     16719.2090  EPtot      =    -80588.2088
 BOND   =       792.5057  ANGLE   =      2031.1565  DIHED      =      3308.5178
 1-4 NB =       952.6161  1-4 EEL =     11277.7841  VDWAALS    =      7762.1245
 EELEC  =   -107101.0550  EHBOND  =         0.0000  RESTRAINT  =       388.1415
 EAMBER (non-restraint)  =    -80976.3503
 EKCMT  =      6732.7223  VIRIAL  =      7417.0756  VOLUME     =    266928.6707
                                                    Density    =         1.0287
 ------------------------------------------------------------------------------

      A V E R A G E S   O V E R     500 S T E P S

 NSTEP =   500000   TIME(PS) =    6000.000  TEMP(K) =   299.97  PRESS =    -9.0
 Etot   =    -64149.0587  EKtot   =     16548.6878  EPtot      =    -80697.7465
 BOND   =       785.2770  ANGLE   =      2044.1646  DIHED      =      3320.7648
 1-4 NB =       960.8905  1-4 EEL =     11225.7528  VDWAALS    =      8010.8116
 EELEC  =   -107435.4277  EHBOND  =         0.0000  RESTRAINT  =       390.0199
 EAMBER (non-restraint)  =    -81087.7664
 EKCMT  =      6743.4006  VIRIAL  =      6795.3953  VOLUME     =    266333.6762
                                                    Density    =         1.0310
 ------------------------------------------------------------------------------

      R M S  F L U C T U A T I O N S

 NSTEP =   500000   TIME(PS) =    6000.000  TEMP(K) =     1.78  PRESS =   187.8
 Etot   =       168.4603  EKtot   =        98.3707  EPtot      =       137.6377
 BOND   =        24.9506  ANGLE   =        34.5281  DIHED      =        16.5748
 1-4 NB =        12.4369  1-4 EEL =        34.0168  VDWAALS    =       128.9935
 EELEC  =       207.5138  EHBOND  =         0.0000  RESTRAINT  =        11.9129
 EAMBER (non-restraint)  =       125.7248
 EKCMT  =        63.2480  VIRIAL  =      1079.9974  VOLUME     =       248.0825
                                                    Density    =         0.0010
 ------------------------------------------------------------------------------
