-------------------------------------------------------
          Amber 18 PMEMD                              2018
          -------------------------------------------------------

  [-O]verwriting output

File Assignments:

 Here is the input file:

constant P
 &cntrl
  imin=0, ntx=5, irest=1,
  ntb=2, ntc=2, ntf=2,
  ntp=1, pres0=1.01325, taup=5,
  nstlim=500000, dt=0.002, cut=10,
  ntt=3, temp0=300, gamma_ln=1,
  ntpr=1000, ntwx=10000, ntwr=10000, tempi=300,ioutfm=1,ig=-1,
 /
 &ewald
 /

Note: ig = -1. Setting random seed to   889355 based on wallclock time in
      microseconds.

--------------------------------------------------------------------------------
   1.  RESOURCE   USE:
--------------------------------------------------------------------------------

 getting box info from netcdf restart file
 NATOM  =   26702 NTYPES =      18 NBONH =   24583 MBONA  =    2144
 NTHETH =    4730 MTHETA =    2896 NPHIH =    9622 MPHIA  =    9100
 NHPARM =       0 NPARM  =       0 NNB   =   53049 NRES   =    7786
 NBONA  =    2144 NTHETA =    2896 NPHIA =    9100 NUMBND =      67
 NUMANG =     150 NPTRA  =     196 NATYP =      38 NPHB   =       1
 IFBOX  =       2 NMXRS  =      24 IFCAP =       0 NEXTRA =       0
 NCOPY  =       0

     BOX TYPE: TRUNCATED OCTAHEDRON

--------------------------------------------------------------------------------
   2.  CONTROL  DATA  FOR  THE  RUN
--------------------------------------------------------------------------------

default_name

General flags:
     imin    =       0, nmropt  =       0

Nature and format of input:
     ntx     =       5, irest   =       1, ntrx    =       1

Nature and format of output:
     ntxo    =       2, ntpr    =    1000, ntrx    =       1, ntwr    =   10000
     iwrap   =       0, ntwx    =   10000, ntwv    =       0, ntwe    =       0
     ioutfm  =       1, ntwprt  =       0, idecomp =       0, rbornstat=      0

Potential function:
     ntf     =       2, ntb     =       2, igb     =       0, nsnb    =      25
     ipol    =       0, gbsa    =       0, iesp    =       0
     dielc   =   1.00000, cut     =  10.00000, intdiel =   1.00000
     lj1264  =       1

Frozen or restrained atoms:
     ibelly  =       0, ntr     =       0

Molecular dynamics:
     nstlim  =    500000, nscm    =      1000, nrespa  =         1
     t       =   0.00000, dt      =   0.00200, vlimit  =  -1.00000

Langevin dynamics temperature regulation:
     ig      =  889355
     temp0   = 300.00000, tempi   = 300.00000, gamma_ln=   1.00000

Pressure regulation:
     ntp     =       1
     pres0   =   1.01325, comp    =  44.60000, taup    =   5.00000

SHAKE:
     ntc     =       2, jfastw  =       0
     tol     =   0.00001

Ewald parameters:
     verbose =       0, ew_type =       0, nbflag  =       1, use_pme =       1
     vdwmeth =       1, eedmeth =       1, netfrc  =       1
     Box X =   70.184   Box Y =   70.184   Box Z =   70.184
     Alpha =  109.471   Beta  =  109.471   Gamma =  109.471
     NFFT1 =   72       NFFT2 =   72       NFFT3 =   72
     Cutoff=   10.000   Tol   =0.100E-04
     Ewald Coefficient =  0.27511
     Interpolation order =    4

--------------------------------------------------------------------------------
   3.  ATOMIC COORDINATES AND VELOCITIES
--------------------------------------------------------------------------------

default_name
 begin time read from input coords =  6000.000 ps

 Number of triangulated 3-point waters found:     7501

     Sum of charges from parm topology file =  -0.00000010
     Forcing neutrality...

--------------------------------------------------------------------------------
   4.  RESULTS
 NSTEP =     1000   TIME(PS) =    6002.000  TEMP(K) =   300.50  PRESS =  -257.5
 Etot   =    -64318.9366  EKtot   =     16577.6719  EPtot      =    -80896.6084
 BOND   =       846.6870  ANGLE   =      2071.0815  DIHED      =      3335.7571
 1-4 NB =       950.3278  1-4 EEL =     11169.3002  VDWAALS    =      7982.1350
 EELEC  =   -107251.8970  EHBOND  =         0.0000  RESTRAINT  =         0.0000
 EKCMT  =      6712.3757  VIRIAL  =      8191.3977  VOLUME     =    265988.9635
                                                    Density    =         1.0324
 ------------------------------------------------------------------------------

      A V E R A G E S   O V E R     500 S T E P S

 NSTEP =   500000   TIME(PS) =    7000.000  TEMP(K) =   300.08  PRESS =     3.1
 Etot   =    -64618.2163  EKtot   =     16554.5325  EPtot      =    -81172.7489
 BOND   =       802.4690  ANGLE   =      2079.7946  DIHED      =      3327.1042
 1-4 NB =       950.8452  1-4 EEL =     11172.1693  VDWAALS    =      8114.2292
 EELEC  =   -107619.3604  EHBOND  =         0.0000  RESTRAINT  =         0.0000
 EKCMT  =      6746.0436  VIRIAL  =      6728.5108  VOLUME     =    264661.7652
                                                    Density    =         1.0375
 ------------------------------------------------------------------------------

      R M S  F L U C T U A T I O N S

 NSTEP =   500000   TIME(PS) =    7000.000  TEMP(K) =     1.82  PRESS =   199.1
 Etot   =       172.7843  EKtot   =       100.2379  EPtot      =       140.3992
 BOND   =        23.9894  ANGLE   =        35.1986  DIHED      =        20.5792
 1-4 NB =        12.8691  1-4 EEL =        37.0374  VDWAALS    =       131.3496
 EELEC  =       214.9159  EHBOND  =         0.0000  RESTRAINT  =         0.0000
 EKCMT  =        64.9489  VIRIAL  =      1131.6485  VOLUME     =       254.2424
                                                    Density    =         0.0010
 ------------------------------------------------------------------------------
