-------------------------------------------------------
          Amber 18 PMEMD                              2018
          -------------------------------------------------------

  [-O]verwriting output

File Assignments:

 Here is the input file:

NVT HeatUp 1ns
 &cntrl
  imin=0, irest=0, ntx=1, ig=-1,
  nstlim=500000, dt=0.002,
  ntb=1, cut=10,
  ntc=2, ntf=2,
  tempi=0.0, temp0=300.0, ntt=3, gamma_ln=2.0,
  ntpr=1000, ntwx=10000, ntwr=10000,
  ioutfm=1, ntwv=0, iwrap=1,
  ntr=1, restraintmask=':1-275', restraint_wt=5.0,
 /
 &ewald
 /

Note: ig = -1. Setting random seed to   701464 based on wallclock time in
      microseconds.

--------------------------------------------------------------------------------
   1.  RESOURCE   USE:
--------------------------------------------------------------------------------

 getting box info from netcdf restart file
 NATOM  =   26702 NTYPES =      18 NBONH =   24583 MBONA  =    2144
 NTHETH =    4730 MTHETA =    2896 NPHIH =    9622 MPHIA  =    9100
 NHPARM =       0 NPARM  =       0 NNB   =   53049 NRES   =    7786
 NBONA  =    2144 NTHETA =    2896 NPHIA =    9100 NUMBND =      67
 NUMANG =     150 NPTRA  =     196 NATYP =      38 NPHB   =       1
 IFBOX  =       2 NMXRS  =      24 IFCAP =       0 NEXTRA =       0
 NCOPY  =       0

     BOX TYPE: TRUNCATED OCTAHEDRON

--------------------------------------------------------------------------------
   2.  CONTROL  DATA  FOR  THE  RUN
--------------------------------------------------------------------------------

default_name

General flags:
     imin    =       0, nmropt  =       0

Nature and format of input:
     ntx     =       1, irest   =       0, ntrx    =       1

Nature and format of output:
     ntxo    =       2, ntpr    =    1000, ntrx    =       1, ntwr    =   10000
     iwrap   =       1, ntwx    =   10000, ntwv    =       0, ntwe    =       0
     ioutfm  =       1, ntwprt  =       0, idecomp =       0, rbornstat=      0

Potential function:
     ntf     =       2, ntb     =       1, igb     =       0, nsnb    =      25
     ipol    =       0, gbsa    =       0, iesp    =       0
     dielc   =   1.00000, cut     =  10.00000, intdiel =   1.00000
     lj1264  =       1

Frozen or restrained atoms:
     ibelly  =       0, ntr     =       1
     restraint_wt =   5.00000

Molecular dynamics:
     nstlim  =    500000, nscm    =         0, nrespa  =         1
     t       =   0.00000, dt      =   0.00200, vlimit  =  -1.00000

Langevin dynamics temperature regulation:
     ig      =  701464
     temp0   = 300.00000, tempi   =   0.00000, gamma_ln=   2.00000

SHAKE:
     ntc     =       2, jfastw  =       0
     tol     =   0.00001

Ewald parameters:
     verbose =       0, ew_type =       0, nbflag  =       1, use_pme =       1
     vdwmeth =       1, eedmeth =       1, netfrc  =       1
     Box X =   73.786   Box Y =   73.786   Box Z =   73.786
     Alpha =  109.471   Beta  =  109.471   Gamma =  109.471
     NFFT1 =   80       NFFT2 =   80       NFFT3 =   80
     Cutoff=   10.000   Tol   =0.100E-04
     Ewald Coefficient =  0.27511
     Interpolation order =    4

    LOADING THE CONSTRAINED ATOMS AS GROUPS

   5.  REFERENCE ATOM COORDINATES

  default_name
     Mask :1-275; matches  4189 atoms

--------------------------------------------------------------------------------
   3.  ATOMIC COORDINATES AND VELOCITIES
--------------------------------------------------------------------------------

default_name
 begin time read from input coords =     0.000 ps

 Number of triangulated 3-point waters found:     7501

     Sum of charges from parm topology file =  -0.00000010
     Forcing neutrality...

--------------------------------------------------------------------------------
   4.  RESULTS
 NSTEP =        0   TIME(PS) =       0.000  TEMP(K) =     0.00  PRESS =     0.0
 Etot   =   -113607.3049  EKtot   =         0.0000  EPtot      =   -113607.3049
 BOND   =       136.6516  ANGLE   =       483.0471  DIHED      =      2974.5019
 1-4 NB =       826.6451  1-4 EEL =     11202.7029  VDWAALS    =     17515.0146
 EELEC  =   -146745.8682  EHBOND  =         0.0000  RESTRAINT  =         0.0000
 ------------------------------------------------------------------------------

      A V E R A G E S   O V E R     500 S T E P S

 NSTEP =   500000   TIME(PS) =    1000.000  TEMP(K) =   299.92  PRESS =     0.0
 Etot   =    -62828.5379  EKtot   =     16545.9903  EPtot      =    -79374.5282
 BOND   =       776.5420  ANGLE   =      1941.3255  DIHED      =      3266.4971
 1-4 NB =       928.5752  1-4 EEL =     11185.9119  VDWAALS    =      7800.1480
 EELEC  =   -105865.8214  EHBOND  =         0.0000  RESTRAINT  =       592.2934
 EAMBER (non-restraint)  =    -79966.8215
 ------------------------------------------------------------------------------

      R M S  F L U C T U A T I O N S

 NSTEP =   500000   TIME(PS) =    1000.000  TEMP(K) =     1.87  PRESS =     0.0
 Etot   =       349.3191  EKtot   =       102.9355  EPtot      =       323.5614
 BOND   =        22.7430  ANGLE   =        33.1395  DIHED      =        13.9802
 1-4 NB =         9.6033  1-4 EEL =        27.9678  VDWAALS    =       148.1758
 EELEC  =       416.9820  EHBOND  =         0.0000  RESTRAINT  =        14.6290
 EAMBER (non-restraint)  =       308.9325
 ------------------------------------------------------------------------------
