-------------------------------------------------------
          Amber 18 PMEMD                              2018
          -------------------------------------------------------

  [-O]verwriting output

File Assignments:

 Here is the input file:

Sampling at constant P
 &cntrl
  imin=0, ntx=5, irest=1,
  ntb=2, ntc=2, ntf=2,  ioutfm=1,
  ntp=1, pres0=1.01325, taup=5,
  nstlim=3000000, dt=0.002, cut=10,
  ntt=3, tempi=300, temp0=300, gamma_ln=1,
  ntpr=10000, ntwx=10000, ntwr=10000,
 /
 &ewald
 /

Note: ig = -1. Setting random seed to   803705 based on wallclock time in
      microseconds.

--------------------------------------------------------------------------------
   1.  RESOURCE   USE:
--------------------------------------------------------------------------------

 getting box info from netcdf restart file
 NATOM  =   26702 NTYPES =      18 NBONH =   24583 MBONA  =    2144
 NTHETH =    4730 MTHETA =    2896 NPHIH =    9622 MPHIA  =    9100
 NHPARM =       0 NPARM  =       0 NNB   =   53049 NRES   =    7786
 NBONA  =    2144 NTHETA =    2896 NPHIA =    9100 NUMBND =      67
 NUMANG =     150 NPTRA  =     196 NATYP =      38 NPHB   =       1
 IFBOX  =       2 NMXRS  =      24 IFCAP =       0 NEXTRA =       0
 NCOPY  =       0

     BOX TYPE: TRUNCATED OCTAHEDRON

--------------------------------------------------------------------------------
   2.  CONTROL  DATA  FOR  THE  RUN
--------------------------------------------------------------------------------

default_name

General flags:
     imin    =       0, nmropt  =       0

Nature and format of input:
     ntx     =       5, irest   =       1, ntrx    =       1

Nature and format of output:
     ntxo    =       2, ntpr    =   10000, ntrx    =       1, ntwr    =   10000
     iwrap   =       0, ntwx    =   10000, ntwv    =       0, ntwe    =       0
     ioutfm  =       1, ntwprt  =       0, idecomp =       0, rbornstat=      0

Potential function:
     ntf     =       2, ntb     =       2, igb     =       0, nsnb    =      25
     ipol    =       0, gbsa    =       0, iesp    =       0
     dielc   =   1.00000, cut     =  10.00000, intdiel =   1.00000
     lj1264  =       1

Frozen or restrained atoms:
     ibelly  =       0, ntr     =       0

Molecular dynamics:
     nstlim  =   3000000, nscm    =      1000, nrespa  =         1
     t       =   0.00000, dt      =   0.00200, vlimit  =  -1.00000

Langevin dynamics temperature regulation:
     ig      =  803705
     temp0   = 300.00000, tempi   = 300.00000, gamma_ln=   1.00000

Pressure regulation:
     ntp     =       1
     pres0   =   1.01325, comp    =  44.60000, taup    =   5.00000

SHAKE:
     ntc     =       2, jfastw  =       0
     tol     =   0.00001

Ewald parameters:
     verbose =       0, ew_type =       0, nbflag  =       1, use_pme =       1
     vdwmeth =       1, eedmeth =       1, netfrc  =       1
     Box X =   70.050   Box Y =   70.050   Box Z =   70.050
     Alpha =  109.471   Beta  =  109.471   Gamma =  109.471
     NFFT1 =   72       NFFT2 =   72       NFFT3 =   72
     Cutoff=   10.000   Tol   =0.100E-04
     Ewald Coefficient =  0.27511
     Interpolation order =    4

--------------------------------------------------------------------------------
   3.  ATOMIC COORDINATES AND VELOCITIES
--------------------------------------------------------------------------------

default_name
 begin time read from input coords =  7000.000 ps

 Number of triangulated 3-point waters found:     7501

     Sum of charges from parm topology file =  -0.00000010
     Forcing neutrality...

--------------------------------------------------------------------------------
   4.  RESULTS
 NSTEP =    10000   TIME(PS) =    7020.000  TEMP(K) =   303.46  PRESS =   130.6
 Etot   =    -64393.7810  EKtot   =     16741.1055  EPtot      =    -81134.8864
 BOND   =       852.0267  ANGLE   =      2022.3620  DIHED      =      3292.0906
 1-4 NB =       943.9964  1-4 EEL =     11170.5966  VDWAALS    =      8070.3404
 EELEC  =   -107486.2991  EHBOND  =         0.0000  RESTRAINT  =         0.0000
 EKCMT  =      6832.6547  VIRIAL  =      6085.6648  VOLUME     =    264884.5824
                                                    Density    =         1.0367
 ------------------------------------------------------------------------------

      A V E R A G E S   O V E R     300 S T E P S

 NSTEP =  3000000   TIME(PS) =   13000.000  TEMP(K) =   299.92  PRESS =    15.2
 Etot   =    -64616.4601  EKtot   =     16546.0219  EPtot      =    -81162.4821
 BOND   =       801.5842  ANGLE   =      2088.4738  DIHED      =      3319.7461
 1-4 NB =       949.9235  1-4 EEL =     11159.3196  VDWAALS    =      8106.8357
 EELEC  =   -107588.3650  EHBOND  =         0.0000  RESTRAINT  =         0.0000
 EKCMT  =      6739.5922  VIRIAL  =      6652.5412  VOLUME     =    264774.2431
                                                    Density    =         1.0371
 ------------------------------------------------------------------------------

      R M S  F L U C T U A T I O N S

 NSTEP =  3000000   TIME(PS) =   13000.000  TEMP(K) =     1.90  PRESS =   185.1
 Etot   =       162.3684  EKtot   =       104.7807  EPtot      =       131.6624
 BOND   =        22.9010  ANGLE   =        36.1150  DIHED      =        19.1031
 1-4 NB =        12.9747  1-4 EEL =        38.3241  VDWAALS    =       142.5810
 EELEC  =       207.8250  EHBOND  =         0.0000  RESTRAINT  =         0.0000
 EKCMT  =        66.2468  VIRIAL  =      1057.0602  VOLUME     =       251.3686
                                                    Density    =         0.0010
 ------------------------------------------------------------------------------
